MODEL 1
REMARK VINA RESULT:     -11.9      0.000      0.000
REMARK  4 active torsions:
REMARK  status: ('A' for Active; 'I' for Inactive)
REMARK    1  A    between atoms: C_1  and  N_9 
REMARK    2  A    between atoms: N_5  and  C_6 
REMARK    3  A    between atoms: N_10  and  C_11 
REMARK    4  A    between atoms: C_15  and  C_17 
ROOT
HETATM    1  C           0       5.704  28.900  52.189  0.00  0.00     0.162 A 
HETATM    2  N           0       6.515  29.982  52.245  0.00  0.00    -0.198 NA
HETATM    3  N           0       5.296  31.198  50.571  0.00  0.00    -0.198 NA
HETATM    4  N           0       3.596  28.060  50.946  0.00  0.00    -0.236 NA
HETATM    5  N           0       3.390  29.953  49.727  0.00  0.00    -0.319 N 
HETATM    6  C           0       4.615  28.939  51.277  0.00  0.00     0.150 A 
HETATM    7  C           0       4.499  30.119  50.523  0.00  0.00     0.167 A 
HETATM    8  C           0       2.905  28.695  50.030  0.00  0.00     0.212 A 
HETATM    9  C           0       6.258  31.021  51.461  0.00  0.00     0.227 A 
HETATM   10 Cl           0       7.381  32.372  51.635  0.00  0.00    -0.041 Cl
ENDROOT
BRANCH   1  11
HETATM   11  N           0       5.988  27.850  53.005  0.00  0.00    -0.361 N 
HETATM   12  C           0       7.368  27.432  53.248  0.00  0.00     0.144 C 
HETATM   13  C           0       7.613  27.205  54.739  0.00  0.00     0.144 C 
HETATM   14  N           0       6.626  26.280  55.291  0.00  0.00    -0.363 N 
HETATM   15  C           0       5.519  25.890  54.419  0.00  0.00     0.144 C 
HETATM   16  C           0       4.929  27.106  53.708  0.00  0.00     0.144 C 
BRANCH  14  17
HETATM   17  C           0       6.720  25.829  56.584  0.00  0.00     0.125 A 
HETATM   18  C           0       5.726  24.984  57.147  0.00  0.00     0.051 A 
HETATM   19  C           0       5.873  24.574  58.459  0.00  0.00     0.021 A 
HETATM   20  C           0       6.988  24.988  59.199  0.00  0.00     0.065 A 
HETATM   21  C           0       7.916  25.806  58.555  0.00  0.00     0.135 A 
HETATM   22  N           0       7.797  26.221  57.296  0.00  0.00    -0.243 NA
BRANCH  20  23
HETATM   23  C           0       7.146  24.606  60.635  0.00  0.00     0.418 C 
HETATM   24  F           0       8.270  23.878  60.838  0.00  0.00    -0.166 F 
HETATM   25  F           0       6.115  23.846  61.083  0.00  0.00    -0.166 F 
HETATM   26  F           0       7.209  25.688  61.444  0.00  0.00    -0.166 F 
ENDBRANCH  20  23
ENDBRANCH  14  17
ENDBRANCH   1  11
BRANCH   5  27
HETATM   27  C           0       2.918  30.938  48.738  0.00  0.00     0.092 C 
HETATM   28  C           0       2.098  30.273  47.614  0.00  0.00     0.026 C 
HETATM   29  C           0       0.684  30.142  48.208  0.00  0.00     0.002 C 
HETATM   30  C           0       0.499  31.420  49.067  0.00  0.00     0.002 C 
HETATM   31  C           0       1.934  31.962  49.348  0.00  0.00     0.026 C 
ENDBRANCH   5  27
TORSDOF 4
ENDMDL
MODEL 2
REMARK VINA RESULT:     -11.7      0.493      1.100
REMARK  4 active torsions:
REMARK  status: ('A' for Active; 'I' for Inactive)
REMARK    1  A    between atoms: C_1  and  N_9 
REMARK    2  A    between atoms: N_5  and  C_6 
REMARK    3  A    between atoms: N_10  and  C_11 
REMARK    4  A    between atoms: C_15  and  C_17 
ROOT
HETATM    1  C           0       5.652  28.851  52.206  0.00  0.00     0.162 A 
HETATM    2  N           0       6.465  29.932  52.263  0.00  0.00    -0.198 NA
HETATM    3  N           0       5.280  31.130  50.551  0.00  0.00    -0.198 NA
HETATM    4  N           0       3.562  28.002  50.937  0.00  0.00    -0.236 NA
HETATM    5  N           0       3.385  29.880  49.690  0.00  0.00    -0.319 N 
HETATM    6  C           0       4.578  28.883  51.275  0.00  0.00     0.150 A 
HETATM    7  C           0       4.480  30.053  50.504  0.00  0.00     0.167 A 
HETATM    8  C           0       2.889  28.628  50.001  0.00  0.00     0.212 A 
HETATM    9  C           0       6.226  30.961  51.461  0.00  0.00     0.227 A 
HETATM   10 Cl           0       7.350  32.311  51.637  0.00  0.00    -0.041 Cl
ENDROOT
BRANCH   1  11
HETATM   11  N           0       5.917  27.811  53.040  0.00  0.00    -0.361 N 
HETATM   12  C           0       7.278  27.302  53.205  0.00  0.00     0.144 C 
HETATM   13  C           0       7.610  27.108  54.684  0.00  0.00     0.144 C 
HETATM   14  N           0       6.601  26.276  55.336  0.00  0.00    -0.363 N 
HETATM   15  C           0       5.412  25.939  54.556  0.00  0.00     0.144 C 
HETATM   16  C           0       4.860  27.170  53.840  0.00  0.00     0.144 C 
BRANCH  14  17
HETATM   17  C           0       6.753  25.862  56.636  0.00  0.00     0.125 A 
HETATM   18  C           0       7.868  26.270  57.417  0.00  0.00     0.051 A 
HETATM   19  C           0       7.969  25.810  58.717  0.00  0.00     0.021 A 
HETATM   20  C           0       6.979  24.965  59.237  0.00  0.00     0.065 A 
HETATM   21  C           0       5.917  24.631  58.397  0.00  0.00     0.135 A 
HETATM   22  N           0       5.798  25.055  57.141  0.00  0.00    -0.243 NA
BRANCH  20  23
HETATM   23  C           0       7.090  24.408  60.619  0.00  0.00     0.418 C 
HETATM   24  F           0       7.196  25.389  61.546  0.00  0.00    -0.166 F 
HETATM   25  F           0       8.184  23.621  60.772  0.00  0.00    -0.166 F 
HETATM   26  F           0       6.018  23.651  60.948  0.00  0.00    -0.166 F 
ENDBRANCH  20  23
ENDBRANCH  14  17
ENDBRANCH   1  11
BRANCH   5  27
HETATM   27  C           0       2.934  30.854  48.680  0.00  0.00     0.092 C 
HETATM   28  C           0       2.064  30.190  47.594  0.00  0.00     0.026 C 
HETATM   29  C           0       0.659  30.135  48.218  0.00  0.00     0.002 C 
HETATM   30  C           0       0.544  31.446  49.040  0.00  0.00     0.002 C 
HETATM   31  C           0       2.005  31.936  49.278  0.00  0.00     0.026 C 
ENDBRANCH   5  27
TORSDOF 4
ENDMDL
MODEL 3
REMARK VINA RESULT:      -8.9      5.855     10.241
REMARK  4 active torsions:
REMARK  status: ('A' for Active; 'I' for Inactive)
REMARK    1  A    between atoms: C_1  and  N_9 
REMARK    2  A    between atoms: N_5  and  C_6 
REMARK    3  A    between atoms: N_10  and  C_11 
REMARK    4  A    between atoms: C_15  and  C_17 
ROOT
HETATM    1  C           0       5.476  28.222  51.182  0.00  0.00     0.162 A 
HETATM    2  N           0       6.157  27.495  50.265  0.00  0.00    -0.198 NA
HETATM    3  N           0       6.862  25.834  51.849  0.00  0.00    -0.198 NA
HETATM    4  N           0       4.901  28.198  53.705  0.00  0.00    -0.236 NA
HETATM    5  N           0       6.042  26.284  54.089  0.00  0.00    -0.319 N 
HETATM    6  C           0       5.470  27.750  52.523  0.00  0.00     0.150 A 
HETATM    7  C           0       6.185  26.562  52.750  0.00  0.00     0.167 A 
HETATM    8  C           0       5.266  27.308  54.597  0.00  0.00     0.212 A 
HETATM    9  C           0       6.776  26.388  50.651  0.00  0.00     0.227 A 
HETATM   10 Cl           0       7.619  25.526  49.361  0.00  0.00    -0.041 Cl
ENDROOT
BRANCH   1  11
HETATM   11  N           0       4.847  29.350  50.760  0.00  0.00    -0.361 N 
HETATM   12  C           0       4.533  29.558  49.347  0.00  0.00     0.144 C 
HETATM   13  C           0       3.094  30.042  49.175  0.00  0.00     0.144 C 
HETATM   14  N           0       2.843  31.222  50.000  0.00  0.00    -0.363 N 
HETATM   15  C           0       3.893  31.613  50.939  0.00  0.00     0.144 C 
HETATM   16  C           0       4.423  30.400  51.701  0.00  0.00     0.144 C 
BRANCH  14  17
HETATM   17  C           0       1.657  31.908  49.917  0.00  0.00     0.125 A 
HETATM   18  C           0       0.878  31.899  48.729  0.00  0.00     0.051 A 
HETATM   19  C           0      -0.301  32.620  48.706  0.00  0.00     0.021 A 
HETATM   20  C           0      -0.707  33.331  49.843  0.00  0.00     0.065 A 
HETATM   21  C           0       0.118  33.268  50.966  0.00  0.00     0.135 A 
HETATM   22  N           0       1.261  32.587  51.014  0.00  0.00    -0.243 NA
BRANCH  20  23
HETATM   23  C           0      -1.948  34.162  49.830  0.00  0.00     0.418 C 
HETATM   24  F           0      -2.868  33.701  50.712  0.00  0.00    -0.166 F 
HETATM   25  F           0      -2.554  34.167  48.617  0.00  0.00    -0.166 F 
HETATM   26  F           0      -1.697  35.454  50.143  0.00  0.00    -0.166 F 
ENDBRANCH  20  23
ENDBRANCH  14  17
ENDBRANCH   1  11
BRANCH   5  27
HETATM   27  C           0       6.667  25.139  54.775  0.00  0.00     0.092 C 
HETATM   28  C           0       8.055  25.500  55.341  0.00  0.00     0.026 C 
HETATM   29  C           0       7.747  26.180  56.686  0.00  0.00     0.002 C 
HETATM   30  C           0       6.522  25.409  57.244  0.00  0.00     0.002 C 
HETATM   31  C           0       5.872  24.691  56.022  0.00  0.00     0.026 C 
ENDBRANCH   5  27
TORSDOF 4
ENDMDL
MODEL 4
REMARK VINA RESULT:      -8.3      4.774      7.656
REMARK  4 active torsions:
REMARK  status: ('A' for Active; 'I' for Inactive)
REMARK    1  A    between atoms: C_1  and  N_9 
REMARK    2  A    between atoms: N_5  and  C_6 
REMARK    3  A    between atoms: N_10  and  C_11 
REMARK    4  A    between atoms: C_15  and  C_17 
ROOT
HETATM    1  C           0       0.071  31.771  48.392  0.00  0.00     0.162 A 
HETATM    2  N           0      -0.741  31.552  47.331  0.00  0.00    -0.198 NA
HETATM    3  N           0      -2.165  33.425  47.815  0.00  0.00    -0.198 NA
HETATM    4  N           0       0.352  33.412  50.373  0.00  0.00    -0.236 NA
HETATM    5  N           0      -1.453  34.643  49.791  0.00  0.00    -0.319 N 
HETATM    6  C           0      -0.228  32.877  49.233  0.00  0.00     0.150 A 
HETATM    7  C           0      -1.353  33.632  48.863  0.00  0.00     0.167 A 
HETATM    8  C           0      -0.402  34.444  50.666  0.00  0.00     0.212 A 
HETATM    9  C           0      -1.764  32.371  47.123  0.00  0.00     0.227 A 
HETATM   10 Cl           0      -2.740  31.985  45.704  0.00  0.00    -0.041 Cl
ENDROOT
BRANCH   1  11
HETATM   11  N           0       1.114  30.920  48.581  0.00  0.00    -0.361 N 
HETATM   12  C           0       2.487  31.330  48.291  0.00  0.00     0.144 C 
HETATM   13  C           0       3.425  30.941  49.434  0.00  0.00     0.144 C 
HETATM   14  N           0       3.302  29.518  49.741  0.00  0.00    -0.363 N 
HETATM   15  C           0       2.232  28.782  49.069  0.00  0.00     0.144 C 
HETATM   16  C           0       0.920  29.562  49.115  0.00  0.00     0.144 C 
BRANCH  14  17
HETATM   17  C           0       4.134  28.913  50.649  0.00  0.00     0.125 A 
HETATM   18  C           0       4.727  29.645  51.713  0.00  0.00     0.051 A 
HETATM   19  C           0       5.565  28.980  52.588  0.00  0.00     0.021 A 
HETATM   20  C           0       5.807  27.610  52.417  0.00  0.00     0.065 A 
HETATM   21  C           0       5.170  26.976  51.351  0.00  0.00     0.135 A 
HETATM   22  N           0       4.363  27.592  50.490  0.00  0.00    -0.243 NA
BRANCH  20  23
HETATM   23  C           0       6.752  26.876  53.313  0.00  0.00     0.418 C 
HETATM   24  F           0       7.465  25.947  52.633  0.00  0.00    -0.166 F 
HETATM   25  F           0       6.110  26.211  54.306  0.00  0.00    -0.166 F 
HETATM   26  F           0       7.634  27.709  53.911  0.00  0.00    -0.166 F 
ENDBRANCH  20  23
ENDBRANCH  14  17
ENDBRANCH   1  11
BRANCH   5  27
HETATM   27  C           0      -2.524  35.655  49.809  0.00  0.00     0.092 C 
HETATM   28  C           0      -2.172  36.843  50.728  0.00  0.00     0.026 C 
HETATM   29  C           0      -1.287  37.747  49.852  0.00  0.00     0.002 C 
HETATM   30  C           0      -1.891  37.626  48.428  0.00  0.00     0.002 C 
HETATM   31  C           0      -2.735  36.316  48.427  0.00  0.00     0.026 C 
ENDBRANCH   5  27
TORSDOF 4
ENDMDL
MODEL 5
REMARK VINA RESULT:      -7.9      2.119      2.832
REMARK  4 active torsions:
REMARK  status: ('A' for Active; 'I' for Inactive)
REMARK    1  A    between atoms: C_1  and  N_9 
REMARK    2  A    between atoms: N_5  and  C_6 
REMARK    3  A    between atoms: N_10  and  C_11 
REMARK    4  A    between atoms: C_15  and  C_17 
ROOT
HETATM    1  C           0       6.950  27.059  52.378  0.00  0.00     0.162 A 
HETATM    2  N           0       7.328  26.385  51.267  0.00  0.00    -0.198 NA
HETATM    3  N           0       6.385  27.999  49.758  0.00  0.00    -0.198 NA
HETATM    4  N           0       5.715  29.228  53.062  0.00  0.00    -0.236 NA
HETATM    5  N           0       5.339  29.855  50.922  0.00  0.00    -0.319 N 
HETATM    6  C           0       6.245  28.280  52.200  0.00  0.00     0.150 A 
HETATM    7  C           0       6.015  28.657  50.867  0.00  0.00     0.167 A 
HETATM    8  C           0       5.191  30.130  52.268  0.00  0.00     0.212 A 
HETATM    9  C           0       7.032  26.889  50.076  0.00  0.00     0.227 A 
HETATM   10 Cl           0       7.586  25.923  48.707  0.00  0.00    -0.041 Cl
ENDROOT
BRANCH   1  11
HETATM   11  N           0       7.269  26.523  53.586  0.00  0.00    -0.361 N 
HETATM   12  C           0       7.825  27.348  54.657  0.00  0.00     0.144 C 
HETATM   13  C           0       7.117  27.070  55.982  0.00  0.00     0.144 C 
HETATM   14  N           0       7.135  25.641  56.288  0.00  0.00    -0.363 N 
HETATM   15  C           0       7.635  24.744  55.248  0.00  0.00     0.144 C 
HETATM   16  C           0       7.040  25.100  53.887  0.00  0.00     0.144 C 
BRANCH  14  17
HETATM   17  C           0       6.667  25.165  57.487  0.00  0.00     0.125 A 
HETATM   18  C           0       7.435  25.272  58.677  0.00  0.00     0.051 A 
HETATM   19  C           0       6.912  24.763  59.851  0.00  0.00     0.021 A 
HETATM   20  C           0       5.646  24.164  59.849  0.00  0.00     0.065 A 
HETATM   21  C           0       4.962  24.118  58.634  0.00  0.00     0.135 A 
HETATM   22  N           0       5.444  24.595  57.488  0.00  0.00    -0.243 NA
BRANCH  20  23
HETATM   23  C           0       5.078  23.556  61.090  0.00  0.00     0.418 C 
HETATM   24  F           0       6.045  23.271  61.994  0.00  0.00    -0.166 F 
HETATM   25  F           0       4.432  22.389  60.844  0.00  0.00    -0.166 F 
HETATM   26  F           0       4.185  24.374  61.693  0.00  0.00    -0.166 F 
ENDBRANCH  20  23
ENDBRANCH  14  17
ENDBRANCH   1  11
BRANCH   5  27
HETATM   27  C           0       4.858  30.596  49.744  0.00  0.00     0.092 C 
HETATM   28  C           0       3.843  29.773  48.926  0.00  0.00     0.026 C 
HETATM   29  C           0       2.505  29.996  49.654  0.00  0.00     0.002 C 
HETATM   30  C           0       2.561  31.469  50.135  0.00  0.00     0.002 C 
HETATM   31  C           0       4.068  31.868  50.129  0.00  0.00     0.026 C 
ENDBRANCH   5  27
TORSDOF 4
ENDMDL
MODEL 6
REMARK VINA RESULT:      -7.8      2.249      3.359
REMARK  4 active torsions:
REMARK  status: ('A' for Active; 'I' for Inactive)
REMARK    1  A    between atoms: C_1  and  N_9 
REMARK    2  A    between atoms: N_5  and  C_6 
REMARK    3  A    between atoms: N_10  and  C_11 
REMARK    4  A    between atoms: C_15  and  C_17 
ROOT
HETATM    1  C           0       4.909  27.527  52.353  0.00  0.00     0.162 A 
HETATM    2  N           0       3.751  27.435  51.659  0.00  0.00    -0.198 NA
HETATM    3  N           0       4.153  29.431  50.386  0.00  0.00    -0.198 NA
HETATM    4  N           0       6.993  29.050  52.546  0.00  0.00    -0.236 NA
HETATM    5  N           0       6.265  30.483  50.956  0.00  0.00    -0.319 N 
HETATM    6  C           0       5.762  28.628  52.068  0.00  0.00     0.150 A 
HETATM    7  C           0       5.298  29.513  51.080  0.00  0.00     0.167 A 
HETATM    8  C           0       7.246  30.143  51.868  0.00  0.00     0.212 A 
HETATM    9  C           0       3.467  28.360  50.752  0.00  0.00     0.227 A 
HETATM   10 Cl           0       1.934  28.123  49.909  0.00  0.00    -0.041 Cl
ENDROOT
BRANCH   1  11
HETATM   11  N           0       5.177  26.564  53.274  0.00  0.00    -0.361 N 
HETATM   12  C           0       6.486  25.915  53.330  0.00  0.00     0.144 C 
HETATM   13  C           0       7.000  25.850  54.768  0.00  0.00     0.144 C 
HETATM   14  N           0       6.010  25.226  55.643  0.00  0.00    -0.363 N 
HETATM   15  C           0       4.694  24.951  55.069  0.00  0.00     0.144 C 
HETATM   16  C           0       4.181  26.151  54.276  0.00  0.00     0.144 C 
BRANCH  14  17
HETATM   17  C           0       6.297  24.948  56.956  0.00  0.00     0.125 A 
HETATM   18  C           0       5.329  24.368  57.819  0.00  0.00     0.051 A 
HETATM   19  C           0       5.677  24.123  59.134  0.00  0.00     0.021 A 
HETATM   20  C           0       6.965  24.439  59.586  0.00  0.00     0.065 A 
HETATM   21  C           0       7.850  24.993  58.660  0.00  0.00     0.135 A 
HETATM   22  N           0       7.540  25.245  57.391  0.00  0.00    -0.243 NA
BRANCH  20  23
HETATM   23  C           0       7.353  24.236  61.015  0.00  0.00     0.418 C 
HETATM   24  F           0       6.426  23.512  61.686  0.00  0.00    -0.166 F 
HETATM   25  F           0       7.479  25.408  61.687  0.00  0.00    -0.166 F 
HETATM   26  F           0       8.537  23.592  61.132  0.00  0.00    -0.166 F 
ENDBRANCH  20  23
ENDBRANCH  14  17
ENDBRANCH   1  11
BRANCH   5  27
HETATM   27  C           0       6.171  31.643  50.053  0.00  0.00     0.092 C 
HETATM   28  C           0       5.177  32.698  50.579  0.00  0.00     0.026 C 
HETATM   29  C           0       5.997  33.513  51.595  0.00  0.00     0.002 C 
HETATM   30  C           0       7.422  33.582  50.984  0.00  0.00     0.002 C 
HETATM   31  C           0       7.504  32.420  49.949  0.00  0.00     0.026 C 
ENDBRANCH   5  27
TORSDOF 4
ENDMDL
MODEL 7
REMARK VINA RESULT:      -7.8      6.394     10.860
REMARK  4 active torsions:
REMARK  status: ('A' for Active; 'I' for Inactive)
REMARK    1  A    between atoms: C_1  and  N_9 
REMARK    2  A    between atoms: N_5  and  C_6 
REMARK    3  A    between atoms: N_10  and  C_11 
REMARK    4  A    between atoms: C_15  and  C_17 
ROOT
HETATM    1  C           0       4.706  28.012  51.639  0.00  0.00     0.162 A 
HETATM    2  N           0       5.441  27.606  50.578  0.00  0.00    -0.198 NA
HETATM    3  N           0       6.927  26.261  51.901  0.00  0.00    -0.198 NA
HETATM    4  N           0       4.589  27.710  54.207  0.00  0.00    -0.236 NA
HETATM    5  N           0       6.372  26.321  54.264  0.00  0.00    -0.319 N 
HETATM    6  C           0       5.081  27.531  52.923  0.00  0.00     0.150 A 
HETATM    7  C           0       6.192  26.672  52.946  0.00  0.00     0.167 A 
HETATM    8  C           0       5.380  26.984  54.960  0.00  0.00     0.212 A 
HETATM    9  C           0       6.462  26.783  50.778  0.00  0.00     0.227 A 
HETATM   10 Cl           0       7.334  26.319  49.315  0.00  0.00    -0.041 Cl
ENDROOT
BRANCH   1  11
HETATM   11  N           0       3.663  28.853  51.406  0.00  0.00    -0.361 N 
HETATM   12  C           0       3.872  30.292  51.252  0.00  0.00     0.144 C 
HETATM   13  C           0       3.111  30.825  50.038  0.00  0.00     0.144 C 
HETATM   14  N           0       1.699  30.452  50.109  0.00  0.00    -0.363 N 
HETATM   15  C           0       1.308  29.528  51.172  0.00  0.00     0.144 C 
HETATM   16  C           0       2.284  28.357  51.266  0.00  0.00     0.144 C 
BRANCH  14  17
HETATM   17  C           0       0.793  30.923  49.193  0.00  0.00     0.125 A 
HETATM   18  C           0       0.216  32.215  49.319  0.00  0.00     0.051 A 
HETATM   19  C           0      -0.699  32.627  48.369  0.00  0.00     0.021 A 
HETATM   20  C           0      -1.032  31.777  47.306  0.00  0.00     0.065 A 
HETATM   21  C           0      -0.403  30.533  47.260  0.00  0.00     0.135 A 
HETATM   22  N           0       0.477  30.109  48.165  0.00  0.00    -0.243 NA
BRANCH  20  23
HETATM   23  C           0      -2.059  32.172  46.295  0.00  0.00     0.418 C 
HETATM   24  F           0      -1.487  32.631  45.156  0.00  0.00    -0.166 F 
HETATM   25  F           0      -2.868  33.166  46.741  0.00  0.00    -0.166 F 
HETATM   26  F           0      -2.864  31.138  45.958  0.00  0.00    -0.166 F 
ENDBRANCH  20  23
ENDBRANCH  14  17
ENDBRANCH   1  11
BRANCH   5  27
HETATM   27  C           0       7.460  25.457  54.756  0.00  0.00     0.092 C 
HETATM   28  C           0       8.467  26.241  55.620  0.00  0.00     0.026 C 
HETATM   29  C           0       7.819  26.276  57.015  0.00  0.00     0.002 C 
HETATM   30  C           0       7.118  24.899  57.157  0.00  0.00     0.002 C 
HETATM   31  C           0       6.950  24.350  55.707  0.00  0.00     0.026 C 
ENDBRANCH   5  27
TORSDOF 4
ENDMDL
MODEL 8
REMARK VINA RESULT:      -7.5      1.909      2.589
REMARK  4 active torsions:
REMARK  status: ('A' for Active; 'I' for Inactive)
REMARK    1  A    between atoms: C_1  and  N_9 
REMARK    2  A    between atoms: N_5  and  C_6 
REMARK    3  A    between atoms: N_10  and  C_11 
REMARK    4  A    between atoms: C_15  and  C_17 
ROOT
HETATM    1  C           0       4.227  27.531  52.024  0.00  0.00     0.162 A 
HETATM    2  N           0       2.908  27.230  52.044  0.00  0.00    -0.198 NA
HETATM    3  N           0       2.354  28.765  50.281  0.00  0.00    -0.198 NA
HETATM    4  N           0       5.898  29.057  50.768  0.00  0.00    -0.236 NA
HETATM    5  N           0       4.299  29.952  49.443  0.00  0.00    -0.319 N 
HETATM    6  C           0       4.667  28.504  51.086  0.00  0.00     0.150 A 
HETATM    7  C           0       3.664  29.055  50.271  0.00  0.00     0.167 A 
HETATM    8  C           0       5.633  29.903  49.802  0.00  0.00     0.212 A 
HETATM    9  C           0       2.094  27.845  51.196  0.00  0.00     0.227 A 
HETATM   10 Cl           0       0.401  27.360  51.314  0.00  0.00    -0.041 Cl
ENDROOT
BRANCH   1  11
HETATM   11  N           0       5.040  26.884  52.901  0.00  0.00    -0.361 N 
HETATM   12  C           0       6.343  27.435  53.272  0.00  0.00     0.144 C 
HETATM   13  C           0       6.544  27.384  54.786  0.00  0.00     0.144 C 
HETATM   14  N           0       6.327  26.030  55.291  0.00  0.00    -0.363 N 
HETATM   15  C           0       5.803  25.044  54.347  0.00  0.00     0.144 C 
HETATM   16  C           0       4.640  25.621  53.543  0.00  0.00     0.144 C 
BRANCH  14  17
HETATM   17  C           0       6.571  25.713  56.604  0.00  0.00     0.125 A 
HETATM   18  C           0       7.711  26.215  57.287  0.00  0.00     0.051 A 
HETATM   19  C           0       7.907  25.849  58.605  0.00  0.00     0.021 A 
HETATM   20  C           0       6.985  25.007  59.240  0.00  0.00     0.065 A 
HETATM   21  C           0       5.890  24.576  58.491  0.00  0.00     0.135 A 
HETATM   22  N           0       5.680  24.908  57.219  0.00  0.00    -0.243 NA
BRANCH  20  23
HETATM   23  C           0       7.198  24.551  60.647  0.00  0.00     0.418 C 
HETATM   24  F           0       7.267  25.596  61.506  0.00  0.00    -0.166 F 
HETATM   25  F           0       8.357  23.860  60.796  0.00  0.00    -0.166 F 
HETATM   26  F           0       6.205  23.738  61.073  0.00  0.00    -0.166 F 
ENDBRANCH  20  23
ENDBRANCH  14  17
ENDBRANCH   1  11
BRANCH   5  27
HETATM   27  C           0       3.616  30.794  48.445  0.00  0.00     0.092 C 
HETATM   28  C           0       2.880  29.945  47.388  0.00  0.00     0.026 C 
HETATM   29  C           0       1.541  29.591  48.057  0.00  0.00     0.002 C 
HETATM   30  C           0       1.166  30.853  48.878  0.00  0.00     0.002 C 
HETATM   31  C           0       2.491  31.652  49.068  0.00  0.00     0.026 C 
ENDBRANCH   5  27
TORSDOF 4
ENDMDL
MODEL 9
REMARK VINA RESULT:      -7.4     13.956     17.010
REMARK  4 active torsions:
REMARK  status: ('A' for Active; 'I' for Inactive)
REMARK    1  A    between atoms: C_1  and  N_9 
REMARK    2  A    between atoms: N_5  and  C_6 
REMARK    3  A    between atoms: N_10  and  C_11 
REMARK    4  A    between atoms: C_15  and  C_17 
ROOT
HETATM    1  C           0       9.839  33.076  68.517  0.00  0.00     0.162 A 
HETATM    2  N           0      10.516  33.075  69.689  0.00  0.00    -0.198 NA
HETATM    3  N           0      12.181  31.522  68.924  0.00  0.00    -0.198 NA
HETATM    4  N           0       9.941  32.006  66.163  0.00  0.00    -0.236 NA
HETATM    5  N           0      11.814  30.828  66.627  0.00  0.00    -0.319 N 
HETATM    6  C           0      10.339  32.260  67.466  0.00  0.00     0.150 A 
HETATM    7  C           0      11.501  31.530  67.768  0.00  0.00     0.167 A 
HETATM    8  C           0      10.834  31.159  65.711  0.00  0.00     0.212 A 
HETATM    9  C           0      11.605  32.326  69.803  0.00  0.00     0.227 A 
HETATM   10 Cl           0      12.403  32.419  71.375  0.00  0.00    -0.041 Cl
ENDROOT
BRANCH   1  11
HETATM   11  N           0       8.728  33.854  68.425  0.00  0.00    -0.361 N 
HETATM   12  C           0       8.826  35.276  68.101  0.00  0.00     0.144 C 
HETATM   13  C           0       7.811  35.661  67.025  0.00  0.00     0.144 C 
HETATM   14  N           0       6.464  35.250  67.414  0.00  0.00    -0.363 N 
HETATM   15  C           0       6.341  34.424  68.614  0.00  0.00     0.144 C 
HETATM   16  C           0       7.376  33.302  68.613  0.00  0.00     0.144 C 
BRANCH  14  17
HETATM   17  C           0       5.370  35.598  66.662  0.00  0.00     0.125 A 
HETATM   18  C           0       4.057  35.562  67.202  0.00  0.00     0.051 A 
HETATM   19  C           0       2.996  35.913  66.389  0.00  0.00     0.021 A 
HETATM   20  C           0       3.232  36.301  65.064  0.00  0.00     0.065 A 
HETATM   21  C           0       4.556  36.317  64.627  0.00  0.00     0.135 A 
HETATM   22  N           0       5.596  35.979  65.387  0.00  0.00    -0.243 NA
BRANCH  20  23
HETATM   23  C           0       2.101  36.633  64.145  0.00  0.00     0.418 C 
HETATM   24  F           0       1.743  35.568  63.388  0.00  0.00    -0.166 F 
HETATM   25  F           0       2.415  37.627  63.277  0.00  0.00    -0.166 F 
HETATM   26  F           0       1.002  37.040  64.819  0.00  0.00    -0.166 F 
ENDBRANCH  20  23
ENDBRANCH  14  17
ENDBRANCH   1  11
BRANCH   5  27
HETATM   27  C           0      12.947  29.893  66.507  0.00  0.00     0.092 C 
HETATM   28  C           0      12.595  28.496  67.056  0.00  0.00     0.026 C 
HETATM   29  C           0      11.861  27.809  65.891  0.00  0.00     0.002 C 
HETATM   30  C           0      12.587  28.317  64.617  0.00  0.00     0.002 C 
HETATM   31  C           0      13.334  29.619  65.036  0.00  0.00     0.026 C 
ENDBRANCH   5  27
TORSDOF 4
ENDMDL
MODEL 10
REMARK VINA RESULT:      -7.2     14.000     16.788
REMARK  4 active torsions:
REMARK  status: ('A' for Active; 'I' for Inactive)
REMARK    1  A    between atoms: C_1  and  N_9 
REMARK    2  A    between atoms: N_5  and  C_6 
REMARK    3  A    between atoms: N_10  and  C_11 
REMARK    4  A    between atoms: C_15  and  C_17 
ROOT
HETATM    1  C           0       8.954  31.168  68.700  0.00  0.00     0.162 A 
HETATM    2  N           0       9.155  30.501  69.861  0.00  0.00    -0.198 NA
HETATM    3  N           0      10.982  29.201  68.998  0.00  0.00    -0.198 NA
HETATM    4  N           0       9.910  31.310  66.300  0.00  0.00    -0.236 NA
HETATM    5  N           0      11.481  29.730  66.682  0.00  0.00    -0.319 N 
HETATM    6  C           0       9.803  30.854  67.604  0.00  0.00     0.150 A 
HETATM    7  C           0      10.772  29.869  67.853  0.00  0.00     0.167 A 
HETATM    8  C           0      10.905  30.620  65.796  0.00  0.00     0.212 A 
HETATM    9  C           0      10.125  29.599  69.926  0.00  0.00     0.227 A 
HETATM   10 Cl           0      10.293  28.806  71.494  0.00  0.00    -0.041 Cl
ENDROOT
BRANCH   1  11
HETATM   11  N           0       7.955  32.089  68.662  0.00  0.00    -0.361 N 
HETATM   12  C           0       8.246  33.522  68.700  0.00  0.00     0.144 C 
HETATM   13  C           0       7.449  34.268  67.630  0.00  0.00     0.144 C 
HETATM   14  N           0       6.024  33.966  67.743  0.00  0.00    -0.363 N 
HETATM   15  C           0       5.638  32.920  68.688  0.00  0.00     0.144 C 
HETATM   16  C           0       6.541  31.696  68.547  0.00  0.00     0.144 C 
BRANCH  14  17
HETATM   17  C           0       5.097  34.616  66.967  0.00  0.00     0.125 A 
HETATM   18  C           0       3.717  34.616  67.306  0.00  0.00     0.051 A 
HETATM   19  C           0       2.832  35.279  66.477  0.00  0.00     0.021 A 
HETATM   20  C           0       3.306  35.938  65.335  0.00  0.00     0.065 A 
HETATM   21  C           0       4.679  35.893  65.093  0.00  0.00     0.135 A 
HETATM   22  N           0       5.552  35.257  65.871  0.00  0.00    -0.243 NA
BRANCH  20  23
HETATM   23  C           0       2.367  36.616  64.391  0.00  0.00     0.418 C 
HETATM   24  F           0       1.301  37.145  65.039  0.00  0.00    -0.166 F 
HETATM   25  F           0       1.863  35.765  63.463  0.00  0.00    -0.166 F 
HETATM   26  F           0       2.968  37.619  63.711  0.00  0.00    -0.166 F 
ENDBRANCH  20  23
ENDBRANCH  14  17
ENDBRANCH   1  11
BRANCH   5  27
HETATM   27  C           0      12.577  28.766  66.479  0.00  0.00     0.092 C 
HETATM   28  C           0      12.357  27.907  65.218  0.00  0.00     0.026 C 
HETATM   29  C           0      12.874  28.789  64.068  0.00  0.00     0.002 C 
HETATM   30  C           0      14.096  29.535  64.665  0.00  0.00     0.002 C 
HETATM   31  C           0      13.932  29.460  66.214  0.00  0.00     0.026 C 
ENDBRANCH   5  27
TORSDOF 4
ENDMDL
