MODEL 1
REMARK VINA RESULT:     -11.9      0.000      0.000
REMARK  4 active torsions:
REMARK  status: ('A' for Active; 'I' for Inactive)
REMARK    1  A    between atoms: C_1  and  N_9 
REMARK    2  A    between atoms: N_5  and  C_6 
REMARK    3  A    between atoms: N_10  and  C_11 
REMARK    4  A    between atoms: C_15  and  C_17 
ROOT
HETATM    1  C           0       5.705  28.922  52.164  0.00  0.00     0.162 A 
HETATM    2  N           0       6.514  30.005  52.222  0.00  0.00    -0.198 NA
HETATM    3  N           0       5.297  31.220  50.545  0.00  0.00    -0.198 NA
HETATM    4  N           0       3.600  28.080  50.916  0.00  0.00    -0.236 NA
HETATM    5  N           0       3.395  29.973  49.696  0.00  0.00    -0.319 N 
HETATM    6  C           0       4.617  28.960  51.250  0.00  0.00     0.150 A 
HETATM    7  C           0       4.502  30.140  50.496  0.00  0.00     0.167 A 
HETATM    8  C           0       2.910  28.715  49.999  0.00  0.00     0.212 A 
HETATM    9  C           0       6.258  31.044  51.438  0.00  0.00     0.227 A 
HETATM   10 Cl           0       7.378  32.396  51.614  0.00  0.00    -0.041 Cl
ENDROOT
BRANCH   1  11
HETATM   11  N           0       5.987  27.872  52.980  0.00  0.00    -0.361 N 
HETATM   12  C           0       7.367  27.455  53.226  0.00  0.00     0.144 C 
HETATM   13  C           0       7.610  27.229  54.717  0.00  0.00     0.144 C 
HETATM   14  N           0       6.622  26.302  55.266  0.00  0.00    -0.363 N 
HETATM   15  C           0       5.518  25.911  54.392  0.00  0.00     0.144 C 
HETATM   16  C           0       4.928  27.126  53.680  0.00  0.00     0.144 C 
BRANCH  14  17
HETATM   17  C           0       6.713  25.851  56.559  0.00  0.00     0.125 A 
HETATM   18  C           0       5.710  25.020  57.126  0.00  0.00     0.051 A 
HETATM   19  C           0       5.854  24.609  58.438  0.00  0.00     0.021 A 
HETATM   20  C           0       6.978  25.007  59.175  0.00  0.00     0.065 A 
HETATM   21  C           0       7.915  25.813  58.527  0.00  0.00     0.135 A 
HETATM   22  N           0       7.798  26.228  57.268  0.00  0.00    -0.243 NA
BRANCH  20  23
HETATM   23  C           0       7.134  24.624  60.610  0.00  0.00     0.418 C 
HETATM   24  F           0       8.271  23.917  60.818  0.00  0.00    -0.166 F 
HETATM   25  F           0       6.116  23.843  61.050  0.00  0.00    -0.166 F 
HETATM   26  F           0       7.173  25.705  61.422  0.00  0.00    -0.166 F 
ENDBRANCH  20  23
ENDBRANCH  14  17
ENDBRANCH   1  11
BRANCH   5  27
HETATM   27  C           0       2.924  30.958  48.707  0.00  0.00     0.092 C 
HETATM   28  C           0       2.082  30.297  47.597  0.00  0.00     0.026 C 
HETATM   29  C           0       0.674  30.187  48.209  0.00  0.00     0.002 C 
HETATM   30  C           0       0.515  31.473  49.061  0.00  0.00     0.002 C 
HETATM   31  C           0       1.960  31.998  49.323  0.00  0.00     0.026 C 
ENDBRANCH   5  27
TORSDOF 4
ENDMDL
MODEL 2
REMARK VINA RESULT:      -9.1      5.854     10.254
REMARK  4 active torsions:
REMARK  status: ('A' for Active; 'I' for Inactive)
REMARK    1  A    between atoms: C_1  and  N_9 
REMARK    2  A    between atoms: N_5  and  C_6 
REMARK    3  A    between atoms: N_10  and  C_11 
REMARK    4  A    between atoms: C_15  and  C_17 
ROOT
HETATM    1  C           0       5.476  28.316  51.124  0.00  0.00     0.162 A 
HETATM    2  N           0       6.165  27.593  50.210  0.00  0.00    -0.198 NA
HETATM    3  N           0       6.882  25.943  51.802  0.00  0.00    -0.198 NA
HETATM    4  N           0       4.896  28.295  53.646  0.00  0.00    -0.236 NA
HETATM    5  N           0       6.052  26.393  54.039  0.00  0.00    -0.319 N 
HETATM    6  C           0       5.471  27.849  52.467  0.00  0.00     0.150 A 
HETATM    7  C           0       6.196  26.668  52.699  0.00  0.00     0.167 A 
HETATM    8  C           0       5.266  27.412  54.542  0.00  0.00     0.212 A 
HETATM    9  C           0       6.794  26.492  50.601  0.00  0.00     0.227 A 
HETATM   10 Cl           0       7.647  25.633  49.316  0.00  0.00    -0.041 Cl
ENDROOT
BRANCH   1  11
HETATM   11  N           0       4.838  29.438  50.697  0.00  0.00    -0.361 N 
HETATM   12  C           0       4.498  29.624  49.287  0.00  0.00     0.144 C 
HETATM   13  C           0       3.056  30.104  49.134  0.00  0.00     0.144 C 
HETATM   14  N           0       2.818  31.296  49.946  0.00  0.00    -0.363 N 
HETATM   15  C           0       3.884  31.701  50.860  0.00  0.00     0.144 C 
HETATM   16  C           0       4.429  30.501  51.631  0.00  0.00     0.144 C 
BRANCH  14  17
HETATM   17  C           0       1.630  31.979  49.874  0.00  0.00     0.125 A 
HETATM   18  C           0       0.873  32.025  48.673  0.00  0.00     0.051 A 
HETATM   19  C           0      -0.310  32.740  48.663  0.00  0.00     0.021 A 
HETATM   20  C           0      -0.741  33.392  49.825  0.00  0.00     0.065 A 
HETATM   21  C           0       0.064  33.279  50.959  0.00  0.00     0.135 A 
HETATM   22  N           0       1.210  32.602  50.995  0.00  0.00    -0.243 NA
BRANCH  20  23
HETATM   23  C           0      -1.987  34.217  49.830  0.00  0.00     0.418 C 
HETATM   24  F           0      -2.620  34.172  48.633  0.00  0.00    -0.166 F 
HETATM   25  F           0      -1.737  35.528  50.078  0.00  0.00    -0.166 F 
HETATM   26  F           0      -2.865  33.804  50.771  0.00  0.00    -0.166 F 
ENDBRANCH  20  23
ENDBRANCH  14  17
ENDBRANCH   1  11
BRANCH   5  27
HETATM   27  C           0       6.686  25.256  54.729  0.00  0.00     0.092 C 
HETATM   28  C           0       8.064  25.635  55.309  0.00  0.00     0.026 C 
HETATM   29  C           0       7.733  26.310  56.652  0.00  0.00     0.002 C 
HETATM   30  C           0       6.513  25.522  57.197  0.00  0.00     0.002 C 
HETATM   31  C           0       5.885  24.796  55.968  0.00  0.00     0.026 C 
ENDBRANCH   5  27
TORSDOF 4
ENDMDL
MODEL 3
REMARK VINA RESULT:      -8.3      4.749      7.651
REMARK  4 active torsions:
REMARK  status: ('A' for Active; 'I' for Inactive)
REMARK    1  A    between atoms: C_1  and  N_9 
REMARK    2  A    between atoms: N_5  and  C_6 
REMARK    3  A    between atoms: N_10  and  C_11 
REMARK    4  A    between atoms: C_15  and  C_17 
ROOT
HETATM    1  C           0       0.071  31.752  48.393  0.00  0.00     0.162 A 
HETATM    2  N           0      -0.737  31.540  47.327  0.00  0.00    -0.198 NA
HETATM    3  N           0      -2.157  33.416  47.810  0.00  0.00    -0.198 NA
HETATM    4  N           0       0.346  33.385  50.382  0.00  0.00    -0.236 NA
HETATM    5  N           0      -1.451  34.624  49.795  0.00  0.00    -0.319 N 
HETATM    6  C           0      -0.229  32.856  49.237  0.00  0.00     0.150 A 
HETATM    7  C           0      -1.350  33.616  48.864  0.00  0.00     0.167 A 
HETATM    8  C           0      -0.406  34.418  50.675  0.00  0.00     0.212 A 
HETATM    9  C           0      -1.756  32.363  47.117  0.00  0.00     0.227 A 
HETATM   10 Cl           0      -2.726  31.986  45.691  0.00  0.00    -0.041 Cl
ENDROOT
BRANCH   1  11
HETATM   11  N           0       1.109  30.897  48.584  0.00  0.00    -0.361 N 
HETATM   12  C           0       2.484  31.297  48.285  0.00  0.00     0.144 C 
HETATM   13  C           0       3.423  30.911  49.427  0.00  0.00     0.144 C 
HETATM   14  N           0       3.294  29.491  49.746  0.00  0.00    -0.363 N 
HETATM   15  C           0       2.217  28.756  49.084  0.00  0.00     0.144 C 
HETATM   16  C           0       0.910  29.543  49.129  0.00  0.00     0.144 C 
BRANCH  14  17
HETATM   17  C           0       4.126  28.888  50.655  0.00  0.00     0.125 A 
HETATM   18  C           0       4.692  29.615  51.737  0.00  0.00     0.051 A 
HETATM   19  C           0       5.532  28.953  52.612  0.00  0.00     0.021 A 
HETATM   20  C           0       5.803  27.591  52.423  0.00  0.00     0.065 A 
HETATM   21  C           0       5.192  26.961  51.340  0.00  0.00     0.135 A 
HETATM   22  N           0       4.383  27.575  50.479  0.00  0.00    -0.243 NA
BRANCH  20  23
HETATM   23  C           0       6.751  26.862  53.320  0.00  0.00     0.418 C 
HETATM   24  F           0       6.107  26.280  54.360  0.00  0.00    -0.166 F 
HETATM   25  F           0       7.684  27.684  53.863  0.00  0.00    -0.166 F 
HETATM   26  F           0       7.424  25.890  52.663  0.00  0.00    -0.166 F 
ENDBRANCH  20  23
ENDBRANCH  14  17
ENDBRANCH   1  11
BRANCH   5  27
HETATM   27  C           0      -2.519  35.640  49.811  0.00  0.00     0.092 C 
HETATM   28  C           0      -2.164  36.827  50.729  0.00  0.00     0.026 C 
HETATM   29  C           0      -1.275  37.727  49.853  0.00  0.00     0.002 C 
HETATM   30  C           0      -1.878  37.607  48.429  0.00  0.00     0.002 C 
HETATM   31  C           0      -2.727  36.299  48.429  0.00  0.00     0.026 C 
ENDBRANCH   5  27
TORSDOF 4
ENDMDL
MODEL 4
REMARK VINA RESULT:      -7.8      1.853      2.223
REMARK  4 active torsions:
REMARK  status: ('A' for Active; 'I' for Inactive)
REMARK    1  A    between atoms: C_1  and  N_9 
REMARK    2  A    between atoms: N_5  and  C_6 
REMARK    3  A    between atoms: N_10  and  C_11 
REMARK    4  A    between atoms: C_15  and  C_17 
ROOT
HETATM    1  C           0       5.201  27.264  52.064  0.00  0.00     0.162 A 
HETATM    2  N           0       6.258  26.894  51.304  0.00  0.00    -0.198 NA
HETATM    3  N           0       5.759  28.451  49.544  0.00  0.00    -0.198 NA
HETATM    4  N           0       3.215  28.922  52.031  0.00  0.00    -0.236 NA
HETATM    5  N           0       3.782  29.778  50.016  0.00  0.00    -0.319 N 
HETATM    6  C           0       4.354  28.287  51.560  0.00  0.00     0.150 A 
HETATM    7  C           0       4.714  28.809  50.306  0.00  0.00     0.167 A 
HETATM    8  C           0       2.914  29.786  51.091  0.00  0.00     0.212 A 
HETATM    9  C           0       6.457  27.497  50.139  0.00  0.00     0.227 A 
HETATM   10 Cl           0       7.872  26.933  49.247  0.00  0.00    -0.041 Cl
ENDROOT
BRANCH   1  11
HETATM   11  N           0       5.022  26.632  53.254  0.00  0.00    -0.361 N 
HETATM   12  C           0       5.246  25.194  53.388  0.00  0.00     0.144 C 
HETATM   13  C           0       6.080  24.886  54.631  0.00  0.00     0.144 C 
HETATM   14  N           0       5.479  25.488  55.819  0.00  0.00    -0.363 N 
HETATM   15  C           0       4.346  26.387  55.608  0.00  0.00     0.144 C 
HETATM   16  C           0       4.628  27.365  54.469  0.00  0.00     0.144 C 
BRANCH  14  17
HETATM   17  C           0       5.984  25.245  57.072  0.00  0.00     0.125 A 
HETATM   18  C           0       7.290  25.667  57.439  0.00  0.00     0.051 A 
HETATM   19  C           0       7.744  25.381  58.713  0.00  0.00     0.021 A 
HETATM   20  C           0       6.917  24.694  59.611  0.00  0.00     0.065 A 
HETATM   21  C           0       5.647  24.332  59.163  0.00  0.00     0.135 A 
HETATM   22  N           0       5.186  24.589  57.941  0.00  0.00    -0.243 NA
BRANCH  20  23
HETATM   23  C           0       7.400  24.322  60.975  0.00  0.00     0.418 C 
HETATM   24  F           0       7.562  25.413  61.762  0.00  0.00    -0.166 F 
HETATM   25  F           0       8.603  23.695  60.944  0.00  0.00    -0.166 F 
HETATM   26  F           0       6.544  23.487  61.607  0.00  0.00    -0.166 F 
ENDBRANCH  20  23
ENDBRANCH  14  17
ENDBRANCH   1  11
BRANCH   5  27
HETATM   27  C           0       3.753  30.561  48.769  0.00  0.00     0.092 C 
HETATM   28  C           0       3.062  29.791  47.626  0.00  0.00     0.026 C 
HETATM   29  C           0       1.562  30.041  47.857  0.00  0.00     0.002 C 
HETATM   30  C           0       1.483  31.501  48.376  0.00  0.00     0.002 C 
HETATM   31  C           0       2.909  31.850  48.900  0.00  0.00     0.026 C 
ENDBRANCH   5  27
TORSDOF 4
ENDMDL
MODEL 5
REMARK VINA RESULT:      -7.8      2.135      2.923
REMARK  4 active torsions:
REMARK  status: ('A' for Active; 'I' for Inactive)
REMARK    1  A    between atoms: C_1  and  N_9 
REMARK    2  A    between atoms: N_5  and  C_6 
REMARK    3  A    between atoms: N_10  and  C_11 
REMARK    4  A    between atoms: C_15  and  C_17 
ROOT
HETATM    1  C           0       6.974  27.023  52.399  0.00  0.00     0.162 A 
HETATM    2  N           0       7.329  26.341  51.285  0.00  0.00    -0.198 NA
HETATM    3  N           0       6.413  27.977  49.784  0.00  0.00    -0.198 NA
HETATM    4  N           0       5.792  29.218  53.094  0.00  0.00    -0.236 NA
HETATM    5  N           0       5.417  29.855  50.957  0.00  0.00    -0.319 N 
HETATM    6  C           0       6.296  28.260  52.227  0.00  0.00     0.150 A 
HETATM    7  C           0       6.065  28.643  50.896  0.00  0.00     0.167 A 
HETATM    8  C           0       5.284  30.133  52.304  0.00  0.00     0.212 A 
HETATM    9  C           0       7.037  26.853  50.097  0.00  0.00     0.227 A 
HETATM   10 Cl           0       7.560  25.876  48.723  0.00  0.00    -0.041 Cl
ENDROOT
BRANCH   1  11
HETATM   11  N           0       7.288  26.478  53.605  0.00  0.00    -0.361 N 
HETATM   12  C           0       7.854  27.293  54.678  0.00  0.00     0.144 C 
HETATM   13  C           0       7.145  27.017  56.003  0.00  0.00     0.144 C 
HETATM   14  N           0       7.148  25.587  56.303  0.00  0.00    -0.363 N 
HETATM   15  C           0       7.638  24.689  55.259  0.00  0.00     0.144 C 
HETATM   16  C           0       7.045  25.056  53.900  0.00  0.00     0.144 C 
BRANCH  14  17
HETATM   17  C           0       6.676  25.111  57.501  0.00  0.00     0.125 A 
HETATM   18  C           0       7.466  25.163  58.681  0.00  0.00     0.051 A 
HETATM   19  C           0       6.938  24.657  59.854  0.00  0.00     0.021 A 
HETATM   20  C           0       5.646  24.114  59.860  0.00  0.00     0.065 A 
HETATM   21  C           0       4.944  24.119  58.655  0.00  0.00     0.135 A 
HETATM   22  N           0       5.430  24.594  57.511  0.00  0.00    -0.243 NA
BRANCH  20  23
HETATM   23  C           0       5.069  23.510  61.099  0.00  0.00     0.418 C 
HETATM   24  F           0       4.399  22.363  60.831  0.00  0.00    -0.166 F 
HETATM   25  F           0       4.182  24.334  61.711  0.00  0.00    -0.166 F 
HETATM   26  F           0       6.023  23.219  62.013  0.00  0.00    -0.166 F 
ENDBRANCH  20  23
ENDBRANCH  14  17
ENDBRANCH   1  11
BRANCH   5  27
HETATM   27  C           0       4.945  30.609  49.782  0.00  0.00     0.092 C 
HETATM   28  C           0       3.892  29.817  48.980  0.00  0.00     0.026 C 
HETATM   29  C           0       2.573  30.086  49.725  0.00  0.00     0.002 C 
HETATM   30  C           0       2.684  31.558  50.201  0.00  0.00     0.002 C 
HETATM   31  C           0       4.203  31.907  50.173  0.00  0.00     0.026 C 
ENDBRANCH   5  27
TORSDOF 4
ENDMDL
MODEL 6
REMARK VINA RESULT:      -7.8      2.256      3.359
REMARK  4 active torsions:
REMARK  status: ('A' for Active; 'I' for Inactive)
REMARK    1  A    between atoms: C_1  and  N_9 
REMARK    2  A    between atoms: N_5  and  C_6 
REMARK    3  A    between atoms: N_10  and  C_11 
REMARK    4  A    between atoms: C_15  and  C_17 
ROOT
HETATM    1  C           0       4.884  27.553  52.383  0.00  0.00     0.162 A 
HETATM    2  N           0       3.719  27.470  51.700  0.00  0.00    -0.198 NA
HETATM    3  N           0       4.125  29.463  50.423  0.00  0.00    -0.198 NA
HETATM    4  N           0       6.981  29.060  52.558  0.00  0.00    -0.236 NA
HETATM    5  N           0       6.251  30.498  50.973  0.00  0.00    -0.319 N 
HETATM    6  C           0       5.743  28.648  52.090  0.00  0.00     0.150 A 
HETATM    7  C           0       5.277  29.536  51.107  0.00  0.00     0.167 A 
HETATM    8  C           0       7.237  30.151  51.877  0.00  0.00     0.212 A 
HETATM    9  C           0       3.434  28.397  50.796  0.00  0.00     0.227 A 
HETATM   10 Cl           0       1.892  28.172  49.966  0.00  0.00    -0.041 Cl
ENDROOT
BRANCH   1  11
HETATM   11  N           0       5.153  26.589  53.302  0.00  0.00    -0.361 N 
HETATM   12  C           0       6.459  25.933  53.351  0.00  0.00     0.144 C 
HETATM   13  C           0       6.981  25.865  54.786  0.00  0.00     0.144 C 
HETATM   14  N           0       5.993  25.246  55.666  0.00  0.00    -0.363 N 
HETATM   15  C           0       4.673  24.977  55.100  0.00  0.00     0.144 C 
HETATM   16  C           0       4.161  26.180  54.311  0.00  0.00     0.144 C 
BRANCH  14  17
HETATM   17  C           0       6.287  24.965  56.977  0.00  0.00     0.125 A 
HETATM   18  C           0       5.334  24.354  57.835  0.00  0.00     0.051 A 
HETATM   19  C           0       5.687  24.108  59.149  0.00  0.00     0.021 A 
HETATM   20  C           0       6.966  24.454  59.604  0.00  0.00     0.065 A 
HETATM   21  C           0       7.837  25.039  58.683  0.00  0.00     0.135 A 
HETATM   22  N           0       7.521  25.292  57.415  0.00  0.00    -0.243 NA
BRANCH  20  23
HETATM   23  C           0       7.358  24.251  61.031  0.00  0.00     0.418 C 
HETATM   24  F           0       6.426  23.539  61.709  0.00  0.00    -0.166 F 
HETATM   25  F           0       7.501  25.423  61.699  0.00  0.00    -0.166 F 
HETATM   26  F           0       8.535  23.594  61.146  0.00  0.00    -0.166 F 
ENDBRANCH  20  23
ENDBRANCH  14  17
ENDBRANCH   1  11
BRANCH   5  27
HETATM   27  C           0       6.157  31.659  50.071  0.00  0.00     0.092 C 
HETATM   28  C           0       5.159  32.712  50.594  0.00  0.00     0.026 C 
HETATM   29  C           0       5.973  33.527  51.614  0.00  0.00     0.002 C 
HETATM   30  C           0       7.400  33.601  51.009  0.00  0.00     0.002 C 
HETATM   31  C           0       7.488  32.439  49.972  0.00  0.00     0.026 C 
ENDBRANCH   5  27
TORSDOF 4
ENDMDL
MODEL 7
REMARK VINA RESULT:      -7.5      1.902      2.603
REMARK  4 active torsions:
REMARK  status: ('A' for Active; 'I' for Inactive)
REMARK    1  A    between atoms: C_1  and  N_9 
REMARK    2  A    between atoms: N_5  and  C_6 
REMARK    3  A    between atoms: N_10  and  C_11 
REMARK    4  A    between atoms: C_15  and  C_17 
ROOT
HETATM    1  C           0       4.154  27.556  52.034  0.00  0.00     0.162 A 
HETATM    2  N           0       2.846  27.209  52.015  0.00  0.00    -0.198 NA
HETATM    3  N           0       2.273  28.793  50.302  0.00  0.00    -0.198 NA
HETATM    4  N           0       5.793  29.190  50.876  0.00  0.00    -0.236 NA
HETATM    5  N           0       4.190  30.080  49.553  0.00  0.00    -0.319 N 
HETATM    6  C           0       4.577  28.582  51.146  0.00  0.00     0.150 A 
HETATM    7  C           0       3.571  29.129  50.332  0.00  0.00     0.167 A 
HETATM    8  C           0       5.517  30.064  49.938  0.00  0.00     0.212 A 
HETATM    9  C           0       2.027  27.828  51.175  0.00  0.00     0.227 A 
HETATM   10 Cl           0       0.351  27.279  51.237  0.00  0.00    -0.041 Cl
ENDROOT
BRANCH   1  11
HETATM   11  N           0       4.972  26.904  52.902  0.00  0.00    -0.361 N 
HETATM   12  C           0       6.286  27.441  53.252  0.00  0.00     0.144 C 
HETATM   13  C           0       6.509  27.394  54.763  0.00  0.00     0.144 C 
HETATM   14  N           0       6.284  26.045  55.277  0.00  0.00    -0.363 N 
HETATM   15  C           0       5.734  25.061  54.345  0.00  0.00     0.144 C 
HETATM   16  C           0       4.566  25.648  53.556  0.00  0.00     0.144 C 
BRANCH  14  17
HETATM   17  C           0       6.543  25.731  56.587  0.00  0.00     0.125 A 
HETATM   18  C           0       7.704  26.216  57.249  0.00  0.00     0.051 A 
HETATM   19  C           0       7.914  25.855  58.566  0.00  0.00     0.021 A 
HETATM   20  C           0       6.988  25.032  59.221  0.00  0.00     0.065 A 
HETATM   21  C           0       5.874  24.617  58.492  0.00  0.00     0.135 A 
HETATM   22  N           0       5.649  24.945  57.222  0.00  0.00    -0.243 NA
BRANCH  20  23
HETATM   23  C           0       7.216  24.580  60.627  0.00  0.00     0.418 C 
HETATM   24  F           0       7.352  25.629  61.473  0.00  0.00    -0.166 F 
HETATM   25  F           0       8.347  23.841  60.754  0.00  0.00    -0.166 F 
HETATM   26  F           0       6.199  23.816  61.085  0.00  0.00    -0.166 F 
ENDBRANCH  20  23
ENDBRANCH  14  17
ENDBRANCH   1  11
BRANCH   5  27
HETATM   27  C           0       3.497  30.937  48.575  0.00  0.00     0.092 C 
HETATM   28  C           0       2.879  30.111  47.429  0.00  0.00     0.026 C 
HETATM   29  C           0       1.538  29.620  47.999  0.00  0.00     0.002 C 
HETATM   30  C           0       1.031  30.794  48.878  0.00  0.00     0.002 C 
HETATM   31  C           0       2.283  31.670  49.189  0.00  0.00     0.026 C 
ENDBRANCH   5  27
TORSDOF 4
ENDMDL
MODEL 8
REMARK VINA RESULT:      -7.4     13.976     17.023
REMARK  4 active torsions:
REMARK  status: ('A' for Active; 'I' for Inactive)
REMARK    1  A    between atoms: C_1  and  N_9 
REMARK    2  A    between atoms: N_5  and  C_6 
REMARK    3  A    between atoms: N_10  and  C_11 
REMARK    4  A    between atoms: C_15  and  C_17 
ROOT
HETATM    1  C           0       9.864  32.973  68.526  0.00  0.00     0.162 A 
HETATM    2  N           0      10.485  32.888  69.727  0.00  0.00    -0.198 NA
HETATM    3  N           0      12.155  31.347  68.948  0.00  0.00    -0.198 NA
HETATM    4  N           0      10.060  32.043  66.119  0.00  0.00    -0.236 NA
HETATM    5  N           0      11.886  30.800  66.598  0.00  0.00    -0.319 N 
HETATM    6  C           0      10.399  32.210  67.453  0.00  0.00     0.150 A 
HETATM    7  C           0      11.532  31.439  67.764  0.00  0.00     0.167 A 
HETATM    8  C           0      10.957  31.205  65.659  0.00  0.00     0.212 A 
HETATM    9  C           0      11.553  32.110  69.846  0.00  0.00     0.227 A 
HETATM   10 Cl           0      12.276  32.092  71.456  0.00  0.00    -0.041 Cl
ENDROOT
BRANCH   1  11
HETATM   11  N           0       8.774  33.779  68.430  0.00  0.00    -0.361 N 
HETATM   12  C           0       8.905  35.186  68.055  0.00  0.00     0.144 C 
HETATM   13  C           0       7.879  35.562  66.986  0.00  0.00     0.144 C 
HETATM   14  N           0       6.529  35.204  67.417  0.00  0.00    -0.363 N 
HETATM   15  C           0       6.408  34.423  68.646  0.00  0.00     0.144 C 
HETATM   16  C           0       7.412  33.272  68.664  0.00  0.00     0.144 C 
BRANCH  14  17
HETATM   17  C           0       5.430  35.557  66.675  0.00  0.00     0.125 A 
HETATM   18  C           0       4.123  35.538  67.231  0.00  0.00     0.051 A 
HETATM   19  C           0       3.056  35.894  66.428  0.00  0.00     0.021 A 
HETATM   20  C           0       3.280  36.269  65.097  0.00  0.00     0.065 A 
HETATM   21  C           0       4.599  36.269  64.645  0.00  0.00     0.135 A 
HETATM   22  N           0       5.644  35.926  65.394  0.00  0.00    -0.243 NA
BRANCH  20  23
HETATM   23  C           0       2.141  36.605  64.189  0.00  0.00     0.418 C 
HETATM   24  F           0       2.469  37.594  63.323  0.00  0.00    -0.166 F 
HETATM   25  F           0       1.051  37.041  64.868  0.00  0.00    -0.166 F 
HETATM   26  F           0       1.743  35.539  63.459  0.00  0.00    -0.166 F 
ENDBRANCH  20  23
ENDBRANCH  14  17
ENDBRANCH   1  11
BRANCH   5  27
HETATM   27  C           0      13.006  29.849  66.476  0.00  0.00     0.092 C 
HETATM   28  C           0      12.661  28.478  67.092  0.00  0.00     0.026 C 
HETATM   29  C           0      11.880  27.753  65.981  0.00  0.00     0.002 C 
HETATM   30  C           0      12.563  28.203  64.663  0.00  0.00     0.002 C 
HETATM   31  C           0      13.336  29.513  65.004  0.00  0.00     0.026 C 
ENDBRANCH   5  27
TORSDOF 4
ENDMDL
MODEL 9
REMARK VINA RESULT:      -7.3     14.007     16.828
REMARK  4 active torsions:
REMARK  status: ('A' for Active; 'I' for Inactive)
REMARK    1  A    between atoms: C_1  and  N_9 
REMARK    2  A    between atoms: N_5  and  C_6 
REMARK    3  A    between atoms: N_10  and  C_11 
REMARK    4  A    between atoms: C_15  and  C_17 
ROOT
HETATM    1  C           0       8.878  31.349  68.681  0.00  0.00     0.162 A 
HETATM    2  N           0       9.028  30.674  69.845  0.00  0.00    -0.198 NA
HETATM    3  N           0      10.831  29.316  69.024  0.00  0.00    -0.198 NA
HETATM    4  N           0       9.897  31.464  66.305  0.00  0.00    -0.236 NA
HETATM    5  N           0      11.405  29.831  66.722  0.00  0.00    -0.319 N 
HETATM    6  C           0       9.743  31.009  67.606  0.00  0.00     0.150 A 
HETATM    7  C           0      10.673  29.991  67.876  0.00  0.00     0.167 A 
HETATM    8  C           0      10.881  30.742  65.825  0.00  0.00     0.212 A 
HETATM    9  C           0       9.965  29.740  69.931  0.00  0.00     0.227 A 
HETATM   10 Cl           0      10.067  28.939  71.501  0.00  0.00    -0.041 Cl
ENDROOT
BRANCH   1  11
HETATM   11  N           0       7.912  32.304  68.620  0.00  0.00    -0.361 N 
HETATM   12  C           0       8.255  33.722  68.524  0.00  0.00     0.144 C 
HETATM   13  C           0       7.426  34.410  67.440  0.00  0.00     0.144 C 
HETATM   14  N           0       5.999  34.176  67.654  0.00  0.00    -0.363 N 
HETATM   15  C           0       5.631  33.225  68.701  0.00  0.00     0.144 C 
HETATM   16  C           0       6.480  31.959  68.614  0.00  0.00     0.144 C 
BRANCH  14  17
HETATM   17  C           0       5.053  34.797  66.878  0.00  0.00     0.125 A 
HETATM   18  C           0       3.700  34.899  67.299  0.00  0.00     0.051 A 
HETATM   19  C           0       2.793  35.527  66.466  0.00  0.00     0.021 A 
HETATM   20  C           0       3.219  36.052  65.240  0.00  0.00     0.065 A 
HETATM   21  C           0       4.570  35.914  64.919  0.00  0.00     0.135 A 
HETATM   22  N           0       5.463  35.310  65.699  0.00  0.00    -0.243 NA
BRANCH  20  23
HETATM   23  C           0       2.252  36.687  64.294  0.00  0.00     0.418 C 
HETATM   24  F           0       1.167  37.175  64.943  0.00  0.00    -0.166 F 
HETATM   25  F           0       1.781  35.811  63.372  0.00  0.00    -0.166 F 
HETATM   26  F           0       2.811  37.710  63.608  0.00  0.00    -0.166 F 
ENDBRANCH  20  23
ENDBRANCH  14  17
ENDBRANCH   1  11
BRANCH   5  27
HETATM   27  C           0      12.473  28.831  66.544  0.00  0.00     0.092 C 
HETATM   28  C           0      12.274  28.005  65.258  0.00  0.00     0.026 C 
HETATM   29  C           0      12.870  28.888  64.148  0.00  0.00     0.002 C 
HETATM   30  C           0      14.092  29.578  64.809  0.00  0.00     0.002 C 
HETATM   31  C           0      13.862  29.480  66.348  0.00  0.00     0.026 C 
ENDBRANCH   5  27
TORSDOF 4
ENDMDL
MODEL 10
REMARK VINA RESULT:      -7.2      5.312     10.162
REMARK  4 active torsions:
REMARK  status: ('A' for Active; 'I' for Inactive)
REMARK    1  A    between atoms: C_1  and  N_9 
REMARK    2  A    between atoms: N_5  and  C_6 
REMARK    3  A    between atoms: N_10  and  C_11 
REMARK    4  A    between atoms: C_15  and  C_17 
ROOT
HETATM    1  C           0       6.688  26.405  54.636  0.00  0.00     0.162 A 
HETATM    2  N           0       7.906  26.982  54.768  0.00  0.00    -0.198 NA
HETATM    3  N           0       8.282  26.090  56.966  0.00  0.00    -0.198 NA
HETATM    4  N           0       5.057  24.887  55.951  0.00  0.00    -0.236 NA
HETATM    5  N           0       6.432  24.720  57.739  0.00  0.00    -0.319 N 
HETATM    6  C           0       6.211  25.618  55.719  0.00  0.00     0.150 A 
HETATM    7  C           0       7.073  25.525  56.825  0.00  0.00     0.167 A 
HETATM    8  C           0       5.229  24.381  57.149  0.00  0.00     0.212 A 
HETATM    9  C           0       8.594  26.785  55.885  0.00  0.00     0.227 A 
HETATM   10 Cl           0      10.169  27.581  55.930  0.00  0.00    -0.041 Cl
ENDROOT
BRANCH   1  11
HETATM   11  N           0       6.005  26.619  53.481  0.00  0.00    -0.361 N 
HETATM   12  C           0       4.622  26.169  53.325  0.00  0.00     0.144 C 
HETATM   13  C           0       3.754  27.274  52.724  0.00  0.00     0.144 C 
HETATM   14  N           0       4.341  27.774  51.482  0.00  0.00    -0.363 N 
HETATM   15  C           0       5.676  27.292  51.136  0.00  0.00     0.144 C 
HETATM   16  C           0       6.606  27.340  52.346  0.00  0.00     0.144 C 
BRANCH  14  17
HETATM   17  C           0       3.676  28.683  50.699  0.00  0.00     0.125 A 
HETATM   18  C           0       3.696  30.072  50.997  0.00  0.00     0.051 A 
HETATM   19  C           0       2.996  30.936  50.175  0.00  0.00     0.021 A 
HETATM   20  C           0       2.294  30.434  49.072  0.00  0.00     0.065 A 
HETATM   21  C           0       2.344  29.057  48.853  0.00  0.00     0.135 A 
HETATM   22  N           0       3.005  28.203  49.631  0.00  0.00    -0.243 NA
BRANCH  20  23
HETATM   23  C           0       1.484  31.336  48.198  0.00  0.00     0.418 C 
HETATM   24  F           0       2.204  31.789  47.144  0.00  0.00    -0.166 F 
HETATM   25  F           0       1.044  32.436  48.858  0.00  0.00    -0.166 F 
HETATM   26  F           0       0.388  30.715  47.706  0.00  0.00    -0.166 F 
ENDBRANCH  20  23
ENDBRANCH  14  17
ENDBRANCH   1  11
BRANCH   5  27
HETATM   27  C           0       6.962  24.385  59.072  0.00  0.00     0.092 C 
HETATM   28  C           0       6.741  25.532  60.079  0.00  0.00     0.026 C 
HETATM   29  C           0       5.295  25.330  60.567  0.00  0.00     0.002 C 
HETATM   30  C           0       5.113  23.790  60.627  0.00  0.00     0.002 C 
HETATM   31  C           0       6.227  23.189  59.716  0.00  0.00     0.026 C 
ENDBRANCH   5  27
TORSDOF 4
ENDMDL
