MODEL 1
REMARK VINA RESULT:     -11.9      0.000      0.000
REMARK  4 active torsions:
REMARK  status: ('A' for Active; 'I' for Inactive)
REMARK    1  A    between atoms: C_1  and  N_9 
REMARK    2  A    between atoms: N_5  and  C_6 
REMARK    3  A    between atoms: N_10  and  C_11 
REMARK    4  A    between atoms: C_15  and  C_17 
ROOT
HETATM    1  C           0       5.702  28.939  52.147  0.00  0.00     0.162 A 
HETATM    2  N           0       6.503  30.028  52.210  0.00  0.00    -0.198 NA
HETATM    3  N           0       5.280  31.240  50.535  0.00  0.00    -0.198 NA
HETATM    4  N           0       3.606  28.086  50.892  0.00  0.00    -0.236 NA
HETATM    5  N           0       3.389  29.982  49.679  0.00  0.00    -0.319 N 
HETATM    6  C           0       4.616  28.973  51.231  0.00  0.00     0.150 A 
HETATM    7  C           0       4.494  30.154  50.481  0.00  0.00     0.167 A 
HETATM    8  C           0       2.913  28.719  49.976  0.00  0.00     0.212 A 
HETATM    9  C           0       6.241  31.068  51.429  0.00  0.00     0.227 A 
HETATM   10 Cl           0       7.351  32.428  51.612  0.00  0.00    -0.041 Cl
ENDROOT
BRANCH   1  11
HETATM   11  N           0       5.991  27.889  52.960  0.00  0.00    -0.361 N 
HETATM   12  C           0       7.374  27.485  53.211  0.00  0.00     0.144 C 
HETATM   13  C           0       7.612  27.254  54.703  0.00  0.00     0.144 C 
HETATM   14  N           0       6.630  26.316  55.244  0.00  0.00    -0.363 N 
HETATM   15  C           0       5.534  25.918  54.362  0.00  0.00     0.144 C 
HETATM   16  C           0       4.936  27.131  53.652  0.00  0.00     0.144 C 
BRANCH  14  17
HETATM   17  C           0       6.720  25.861  56.535  0.00  0.00     0.125 A 
HETATM   18  C           0       5.717  25.027  57.098  0.00  0.00     0.051 A 
HETATM   19  C           0       5.859  24.611  58.408  0.00  0.00     0.021 A 
HETATM   20  C           0       6.981  25.009  59.148  0.00  0.00     0.065 A 
HETATM   21  C           0       7.918  25.817  58.505  0.00  0.00     0.135 A 
HETATM   22  N           0       7.803  26.237  57.247  0.00  0.00    -0.243 NA
BRANCH  20  23
HETATM   23  C           0       7.135  24.621  60.583  0.00  0.00     0.418 C 
HETATM   24  F           0       8.291  23.946  60.796  0.00  0.00    -0.166 F 
HETATM   25  F           0       6.137  23.807  61.008  0.00  0.00    -0.166 F 
HETATM   26  F           0       7.135  25.697  61.402  0.00  0.00    -0.166 F 
ENDBRANCH  20  23
ENDBRANCH  14  17
ENDBRANCH   1  11
BRANCH   5  27
HETATM   27  C           0       2.913  30.967  48.692  0.00  0.00     0.092 C 
HETATM   28  C           0       2.078  30.302  47.578  0.00  0.00     0.026 C 
HETATM   29  C           0       0.670  30.180  48.186  0.00  0.00     0.002 C 
HETATM   30  C           0       0.500  31.462  49.042  0.00  0.00     0.002 C 
HETATM   31  C           0       1.939  31.997  49.309  0.00  0.00     0.026 C 
ENDBRANCH   5  27
TORSDOF 4
ENDMDL
MODEL 2
REMARK VINA RESULT:     -11.7      0.501      1.096
REMARK  4 active torsions:
REMARK  status: ('A' for Active; 'I' for Inactive)
REMARK    1  A    between atoms: C_1  and  N_9 
REMARK    2  A    between atoms: N_5  and  C_6 
REMARK    3  A    between atoms: N_10  and  C_11 
REMARK    4  A    between atoms: C_15  and  C_17 
ROOT
HETATM    1  C           0       5.652  28.847  52.214  0.00  0.00     0.162 A 
HETATM    2  N           0       6.473  29.921  52.265  0.00  0.00    -0.198 NA
HETATM    3  N           0       5.290  31.123  50.554  0.00  0.00    -0.198 NA
HETATM    4  N           0       3.551  28.010  50.955  0.00  0.00    -0.236 NA
HETATM    5  N           0       3.383  29.885  49.703  0.00  0.00    -0.319 N 
HETATM    6  C           0       4.575  28.883  51.287  0.00  0.00     0.150 A 
HETATM    7  C           0       4.483  30.052  50.512  0.00  0.00     0.167 A 
HETATM    8  C           0       2.880  28.638  50.020  0.00  0.00     0.212 A 
HETATM    9  C           0       6.239  30.950  51.461  0.00  0.00     0.227 A 
HETATM   10 Cl           0       7.373  32.292  51.629  0.00  0.00    -0.041 Cl
ENDROOT
BRANCH   1  11
HETATM   11  N           0       5.912  27.807  53.050  0.00  0.00    -0.361 N 
HETATM   12  C           0       7.269  27.286  53.209  0.00  0.00     0.144 C 
HETATM   13  C           0       7.609  27.094  54.687  0.00  0.00     0.144 C 
HETATM   14  N           0       6.596  26.273  55.347  0.00  0.00    -0.363 N 
HETATM   15  C           0       5.399  25.944  54.575  0.00  0.00     0.144 C 
HETATM   16  C           0       4.854  27.178  53.859  0.00  0.00     0.144 C 
BRANCH  14  17
HETATM   17  C           0       6.751  25.863  56.647  0.00  0.00     0.125 A 
HETATM   18  C           0       7.871  26.268  57.423  0.00  0.00     0.051 A 
HETATM   19  C           0       7.975  25.811  58.723  0.00  0.00     0.021 A 
HETATM   20  C           0       6.984  24.972  59.250  0.00  0.00     0.065 A 
HETATM   21  C           0       5.917  24.640  58.416  0.00  0.00     0.135 A 
HETATM   22  N           0       5.794  25.061  57.159  0.00  0.00    -0.243 NA
BRANCH  20  23
HETATM   23  C           0       7.098  24.418  60.633  0.00  0.00     0.418 C 
HETATM   24  F           0       7.217  25.402  61.557  0.00  0.00    -0.166 F 
HETATM   25  F           0       8.187  23.623  60.783  0.00  0.00    -0.166 F 
HETATM   26  F           0       6.022  23.670  60.970  0.00  0.00    -0.166 F 
ENDBRANCH  20  23
ENDBRANCH  14  17
ENDBRANCH   1  11
BRANCH   5  27
HETATM   27  C           0       2.936  30.860  48.692  0.00  0.00     0.092 C 
HETATM   28  C           0       2.064  30.197  47.606  0.00  0.00     0.026 C 
HETATM   29  C           0       0.658  30.149  48.231  0.00  0.00     0.002 C 
HETATM   30  C           0       0.548  31.461  49.052  0.00  0.00     0.002 C 
HETATM   31  C           0       2.011  31.945  49.288  0.00  0.00     0.026 C 
ENDBRANCH   5  27
TORSDOF 4
ENDMDL
MODEL 3
REMARK VINA RESULT:      -9.0      5.845     10.239
REMARK  4 active torsions:
REMARK  status: ('A' for Active; 'I' for Inactive)
REMARK    1  A    between atoms: C_1  and  N_9 
REMARK    2  A    between atoms: N_5  and  C_6 
REMARK    3  A    between atoms: N_10  and  C_11 
REMARK    4  A    between atoms: C_15  and  C_17 
ROOT
HETATM    1  C           0       5.466  28.310  51.153  0.00  0.00     0.162 A 
HETATM    2  N           0       6.148  27.582  50.237  0.00  0.00    -0.198 NA
HETATM    3  N           0       6.864  25.931  51.829  0.00  0.00    -0.198 NA
HETATM    4  N           0       4.895  28.295  53.677  0.00  0.00    -0.236 NA
HETATM    5  N           0       6.045  26.388  54.068  0.00  0.00    -0.319 N 
HETATM    6  C           0       5.465  27.845  52.496  0.00  0.00     0.150 A 
HETATM    7  C           0       6.185  26.661  52.727  0.00  0.00     0.167 A 
HETATM    8  C           0       5.266  27.412  54.572  0.00  0.00     0.212 A 
HETATM    9  C           0       6.774  26.480  50.628  0.00  0.00     0.227 A 
HETATM   10 Cl           0       7.618  25.615  49.341  0.00  0.00    -0.041 Cl
ENDROOT
BRANCH   1  11
HETATM   11  N           0       4.831  29.433  50.726  0.00  0.00    -0.361 N 
HETATM   12  C           0       4.497  29.624  49.316  0.00  0.00     0.144 C 
HETATM   13  C           0       3.055  30.106  49.158  0.00  0.00     0.144 C 
HETATM   14  N           0       2.817  31.296  49.972  0.00  0.00    -0.363 N 
HETATM   15  C           0       3.880  31.698  50.891  0.00  0.00     0.144 C 
HETATM   16  C           0       4.421  30.495  51.661  0.00  0.00     0.144 C 
BRANCH  14  17
HETATM   17  C           0       1.630  31.981  49.898  0.00  0.00     0.125 A 
HETATM   18  C           0       0.865  32.011  48.701  0.00  0.00     0.051 A 
HETATM   19  C           0      -0.316  32.728  48.688  0.00  0.00     0.021 A 
HETATM   20  C           0      -0.738  33.399  49.843  0.00  0.00     0.065 A 
HETATM   21  C           0       0.074  33.301  50.973  0.00  0.00     0.135 A 
HETATM   22  N           0       1.218  32.622  51.012  0.00  0.00    -0.243 NA
BRANCH  20  23
HETATM   23  C           0      -1.982  34.228  49.843  0.00  0.00     0.418 C 
HETATM   24  F           0      -2.867  33.799  50.774  0.00  0.00    -0.166 F 
HETATM   25  F           0      -2.631  34.184  48.653  0.00  0.00    -0.166 F 
HETATM   26  F           0      -1.723  35.531  50.096  0.00  0.00    -0.166 F 
ENDBRANCH  20  23
ENDBRANCH  14  17
ENDBRANCH   1  11
BRANCH   5  27
HETATM   27  C           0       6.677  25.250  54.758  0.00  0.00     0.092 C 
HETATM   28  C           0       8.047  25.632  55.355  0.00  0.00     0.026 C 
HETATM   29  C           0       7.699  26.296  56.698  0.00  0.00     0.002 C 
HETATM   30  C           0       6.477  25.499  57.226  0.00  0.00     0.002 C 
HETATM   31  C           0       5.865  24.779  55.986  0.00  0.00     0.026 C 
ENDBRANCH   5  27
TORSDOF 4
ENDMDL
MODEL 4
REMARK VINA RESULT:      -8.3      4.770      7.646
REMARK  4 active torsions:
REMARK  status: ('A' for Active; 'I' for Inactive)
REMARK    1  A    between atoms: C_1  and  N_9 
REMARK    2  A    between atoms: N_5  and  C_6 
REMARK    3  A    between atoms: N_10  and  C_11 
REMARK    4  A    between atoms: C_15  and  C_17 
ROOT
HETATM    1  C           0       0.054  31.790  48.372  0.00  0.00     0.162 A 
HETATM    2  N           0      -0.762  31.564  47.316  0.00  0.00    -0.198 NA
HETATM    3  N           0      -2.190  33.435  47.798  0.00  0.00    -0.198 NA
HETATM    4  N           0       0.337  33.439  50.346  0.00  0.00    -0.236 NA
HETATM    5  N           0      -1.474  34.662  49.767  0.00  0.00    -0.319 N 
HETATM    6  C           0      -0.246  32.898  49.211  0.00  0.00     0.150 A 
HETATM    7  C           0      -1.375  33.648  48.842  0.00  0.00     0.167 A 
HETATM    8  C           0      -0.420  34.470  50.638  0.00  0.00     0.212 A 
HETATM    9  C           0      -1.788  32.379  47.109  0.00  0.00     0.227 A 
HETATM   10 Cl           0      -2.770  31.985  45.695  0.00  0.00    -0.041 Cl
ENDROOT
BRANCH   1  11
HETATM   11  N           0       1.100  30.943  48.560  0.00  0.00    -0.361 N 
HETATM   12  C           0       2.472  31.361  48.276  0.00  0.00     0.144 C 
HETATM   13  C           0       3.408  30.971  49.419  0.00  0.00     0.144 C 
HETATM   14  N           0       3.291  29.545  49.720  0.00  0.00    -0.363 N 
HETATM   15  C           0       2.226  28.808  49.042  0.00  0.00     0.144 C 
HETATM   16  C           0       0.910  29.581  49.087  0.00  0.00     0.144 C 
BRANCH  14  17
HETATM   17  C           0       4.123  28.940  50.627  0.00  0.00     0.125 A 
HETATM   18  C           0       4.695  29.666  51.707  0.00  0.00     0.051 A 
HETATM   19  C           0       5.535  29.001  52.580  0.00  0.00     0.021 A 
HETATM   20  C           0       5.800  27.638  52.393  0.00  0.00     0.065 A 
HETATM   21  C           0       5.182  27.009  51.312  0.00  0.00     0.135 A 
HETATM   22  N           0       4.373  27.626  50.453  0.00  0.00    -0.243 NA
BRANCH  20  23
HETATM   23  C           0       6.746  26.906  53.287  0.00  0.00     0.418 C 
HETATM   24  F           0       7.445  25.963  52.610  0.00  0.00    -0.166 F 
HETATM   25  F           0       6.108  26.256  54.293  0.00  0.00    -0.166 F 
HETATM   26  F           0       7.641  27.737  53.868  0.00  0.00    -0.166 F 
ENDBRANCH  20  23
ENDBRANCH  14  17
ENDBRANCH   1  11
BRANCH   5  27
HETATM   27  C           0      -2.548  35.671  49.786  0.00  0.00     0.092 C 
HETATM   28  C           0      -2.203  36.857  50.709  0.00  0.00     0.026 C 
HETATM   29  C           0      -1.318  37.766  49.838  0.00  0.00     0.002 C 
HETATM   30  C           0      -1.918  37.648  48.412  0.00  0.00     0.002 C 
HETATM   31  C           0      -2.758  36.335  48.406  0.00  0.00     0.026 C 
ENDBRANCH   5  27
TORSDOF 4
ENDMDL
MODEL 5
REMARK VINA RESULT:      -7.8      2.278      3.298
REMARK  4 active torsions:
REMARK  status: ('A' for Active; 'I' for Inactive)
REMARK    1  A    between atoms: C_1  and  N_9 
REMARK    2  A    between atoms: N_5  and  C_6 
REMARK    3  A    between atoms: N_10  and  C_11 
REMARK    4  A    between atoms: C_15  and  C_17 
ROOT
HETATM    1  C           0       4.926  27.513  52.350  0.00  0.00     0.162 A 
HETATM    2  N           0       3.773  27.409  51.648  0.00  0.00    -0.198 NA
HETATM    3  N           0       4.163  29.413  50.381  0.00  0.00    -0.198 NA
HETATM    4  N           0       6.992  29.057  52.560  0.00  0.00    -0.236 NA
HETATM    5  N           0       6.260  30.485  50.967  0.00  0.00    -0.319 N 
HETATM    6  C           0       5.769  28.623  52.072  0.00  0.00     0.150 A 
HETATM    7  C           0       5.302  29.505  51.083  0.00  0.00     0.167 A 
HETATM    8  C           0       7.238  30.154  51.885  0.00  0.00     0.212 A 
HETATM    9  C           0       3.486  28.334  50.741  0.00  0.00     0.227 A 
HETATM   10 Cl           0       1.961  28.082  49.887  0.00  0.00    -0.041 Cl
ENDROOT
BRANCH   1  11
HETATM   11  N           0       5.198  26.551  53.271  0.00  0.00    -0.361 N 
HETATM   12  C           0       6.513  25.915  53.335  0.00  0.00     0.144 C 
HETATM   13  C           0       7.018  25.853  54.776  0.00  0.00     0.144 C 
HETATM   14  N           0       6.029  25.218  55.644  0.00  0.00    -0.363 N 
HETATM   15  C           0       4.720  24.930  55.061  0.00  0.00     0.144 C 
HETATM   16  C           0       4.199  26.127  54.267  0.00  0.00     0.144 C 
BRANCH  14  17
HETATM   17  C           0       6.311  24.941  56.958  0.00  0.00     0.125 A 
HETATM   18  C           0       5.325  24.407  57.831  0.00  0.00     0.051 A 
HETATM   19  C           0       5.669  24.160  59.146  0.00  0.00     0.021 A 
HETATM   20  C           0       6.970  24.430  59.590  0.00  0.00     0.065 A 
HETATM   21  C           0       7.871  24.941  58.656  0.00  0.00     0.135 A 
HETATM   22  N           0       7.566  25.193  57.385  0.00  0.00    -0.243 NA
BRANCH  20  23
HETATM   23  C           0       7.356  24.225  61.019  0.00  0.00     0.418 C 
HETATM   24  F           0       8.539  23.575  61.128  0.00  0.00    -0.166 F 
HETATM   25  F           0       6.448  23.479  61.697  0.00  0.00    -0.166 F 
HETATM   26  F           0       7.471  25.396  61.686  0.00  0.00    -0.166 F 
ENDBRANCH  20  23
ENDBRANCH  14  17
ENDBRANCH   1  11
BRANCH   5  27
HETATM   27  C           0       6.160  31.646  50.065  0.00  0.00     0.092 C 
HETATM   28  C           0       5.142  32.684  50.580  0.00  0.00     0.026 C 
HETATM   29  C           0       5.935  33.509  51.609  0.00  0.00     0.002 C 
HETATM   30  C           0       7.366  33.603  51.018  0.00  0.00     0.002 C 
HETATM   31  C           0       7.481  32.444  49.981  0.00  0.00     0.026 C 
ENDBRANCH   5  27
TORSDOF 4
ENDMDL
MODEL 6
REMARK VINA RESULT:      -7.5      1.900      2.596
REMARK  4 active torsions:
REMARK  status: ('A' for Active; 'I' for Inactive)
REMARK    1  A    between atoms: C_1  and  N_9 
REMARK    2  A    between atoms: N_5  and  C_6 
REMARK    3  A    between atoms: N_10  and  C_11 
REMARK    4  A    between atoms: C_15  and  C_17 
ROOT
HETATM    1  C           0       4.168  27.558  52.032  0.00  0.00     0.162 A 
HETATM    2  N           0       2.858  27.218  52.015  0.00  0.00    -0.198 NA
HETATM    3  N           0       2.292  28.791  50.291  0.00  0.00    -0.198 NA
HETATM    4  N           0       5.815  29.174  50.860  0.00  0.00    -0.236 NA
HETATM    5  N           0       4.216  30.063  49.531  0.00  0.00    -0.319 N 
HETATM    6  C           0       4.596  28.575  51.135  0.00  0.00     0.150 A 
HETATM    7  C           0       3.593  29.121  50.317  0.00  0.00     0.167 A 
HETATM    8  C           0       5.543  30.043  49.915  0.00  0.00     0.212 A 
HETATM    9  C           0       2.042  27.835  51.171  0.00  0.00     0.227 A 
HETATM   10 Cl           0       0.363  27.295  51.239  0.00  0.00    -0.041 Cl
ENDROOT
BRANCH   1  11
HETATM   11  N           0       4.983  26.909  52.904  0.00  0.00    -0.361 N 
HETATM   12  C           0       6.297  27.446  53.255  0.00  0.00     0.144 C 
HETATM   13  C           0       6.516  27.404  54.767  0.00  0.00     0.144 C 
HETATM   14  N           0       6.287  26.057  55.286  0.00  0.00    -0.363 N 
HETATM   15  C           0       5.740  25.071  54.357  0.00  0.00     0.144 C 
HETATM   16  C           0       4.574  25.656  53.562  0.00  0.00     0.144 C 
BRANCH  14  17
HETATM   17  C           0       6.543  25.749  56.598  0.00  0.00     0.125 A 
HETATM   18  C           0       7.711  26.221  57.256  0.00  0.00     0.051 A 
HETATM   19  C           0       7.917  25.865  58.576  0.00  0.00     0.021 A 
HETATM   20  C           0       6.979  25.061  59.236  0.00  0.00     0.065 A 
HETATM   21  C           0       5.858  24.657  58.510  0.00  0.00     0.135 A 
HETATM   22  N           0       5.638  24.980  57.238  0.00  0.00    -0.243 NA
BRANCH  20  23
HETATM   23  C           0       7.202  24.615  60.645  0.00  0.00     0.418 C 
HETATM   24  F           0       7.327  25.667  61.488  0.00  0.00    -0.166 F 
HETATM   25  F           0       8.335  23.881  60.781  0.00  0.00    -0.166 F 
HETATM   26  F           0       6.185  23.847  61.100  0.00  0.00    -0.166 F 
ENDBRANCH  20  23
ENDBRANCH  14  17
ENDBRANCH   1  11
BRANCH   5  27
HETATM   27  C           0       3.527  30.915  48.546  0.00  0.00     0.092 C 
HETATM   28  C           0       2.840  30.079  47.448  0.00  0.00     0.026 C 
HETATM   29  C           0       1.499  29.662  48.076  0.00  0.00     0.002 C 
HETATM   30  C           0       1.068  30.885  48.929  0.00  0.00     0.002 C 
HETATM   31  C           0       2.363  31.718  49.172  0.00  0.00     0.026 C 
ENDBRANCH   5  27
TORSDOF 4
ENDMDL
MODEL 7
REMARK VINA RESULT:      -7.4     13.989     17.039
REMARK  4 active torsions:
REMARK  status: ('A' for Active; 'I' for Inactive)
REMARK    1  A    between atoms: C_1  and  N_9 
REMARK    2  A    between atoms: N_5  and  C_6 
REMARK    3  A    between atoms: N_10  and  C_11 
REMARK    4  A    between atoms: C_15  and  C_17 
ROOT
HETATM    1  C           0       9.816  32.962  68.535  0.00  0.00     0.162 A 
HETATM    2  N           0      10.407  32.845  69.748  0.00  0.00    -0.198 NA
HETATM    3  N           0      12.085  31.311  68.973  0.00  0.00    -0.198 NA
HETATM    4  N           0      10.062  32.087  66.113  0.00  0.00    -0.236 NA
HETATM    5  N           0      11.868  30.820  66.605  0.00  0.00    -0.319 N 
HETATM    6  C           0      10.370  32.221  67.457  0.00  0.00     0.150 A 
HETATM    7  C           0      11.490  31.435  67.777  0.00  0.00     0.167 A 
HETATM    8  C           0      10.964  31.253  65.654  0.00  0.00     0.212 A 
HETATM    9  C           0      11.467  32.058  69.874  0.00  0.00     0.227 A 
HETATM   10 Cl           0      12.152  31.997  71.500  0.00  0.00    -0.041 Cl
ENDROOT
BRANCH   1  11
HETATM   11  N           0       8.733  33.778  68.432  0.00  0.00    -0.361 N 
HETATM   12  C           0       8.878  35.181  68.049  0.00  0.00     0.144 C 
HETATM   13  C           0       7.857  35.561  66.977  0.00  0.00     0.144 C 
HETATM   14  N           0       6.503  35.218  67.407  0.00  0.00    -0.363 N 
HETATM   15  C           0       6.373  34.446  68.641  0.00  0.00     0.144 C 
HETATM   16  C           0       7.366  33.285  68.667  0.00  0.00     0.144 C 
BRANCH  14  17
HETATM   17  C           0       5.409  35.577  66.661  0.00  0.00     0.125 A 
HETATM   18  C           0       4.101  35.571  67.215  0.00  0.00     0.051 A 
HETATM   19  C           0       3.038  35.932  66.408  0.00  0.00     0.021 A 
HETATM   20  C           0       3.268  36.299  65.075  0.00  0.00     0.065 A 
HETATM   21  C           0       4.588  36.286  64.626  0.00  0.00     0.135 A 
HETATM   22  N           0       5.629  35.938  65.379  0.00  0.00    -0.243 NA
BRANCH  20  23
HETATM   23  C           0       2.134  36.641  64.163  0.00  0.00     0.418 C 
HETATM   24  F           0       1.049  37.066  64.853  0.00  0.00    -0.166 F 
HETATM   25  F           0       1.724  35.577  63.429  0.00  0.00    -0.166 F 
HETATM   26  F           0       2.466  37.614  63.285  0.00  0.00    -0.166 F 
ENDBRANCH  20  23
ENDBRANCH  14  17
ENDBRANCH   1  11
BRANCH   5  27
HETATM   27  C           0      12.984  29.865  66.487  0.00  0.00     0.092 C 
HETATM   28  C           0      12.635  28.499  67.112  0.00  0.00     0.026 C 
HETATM   29  C           0      11.850  27.770  66.007  0.00  0.00     0.002 C 
HETATM   30  C           0      12.533  28.209  64.685  0.00  0.00     0.002 C 
HETATM   31  C           0      13.311  29.518  65.017  0.00  0.00     0.026 C 
ENDBRANCH   5  27
TORSDOF 4
ENDMDL
MODEL 8
REMARK VINA RESULT:      -7.2     14.015     16.841
REMARK  4 active torsions:
REMARK  status: ('A' for Active; 'I' for Inactive)
REMARK    1  A    between atoms: C_1  and  N_9 
REMARK    2  A    between atoms: N_5  and  C_6 
REMARK    3  A    between atoms: N_10  and  C_11 
REMARK    4  A    between atoms: C_15  and  C_17 
ROOT
HETATM    1  C           0       8.875  31.278  68.701  0.00  0.00     0.162 A 
HETATM    2  N           0       9.030  30.592  69.858  0.00  0.00    -0.198 NA
HETATM    3  N           0      10.861  29.274  69.033  0.00  0.00    -0.198 NA
HETATM    4  N           0       9.905  31.436  66.332  0.00  0.00    -0.236 NA
HETATM    5  N           0      11.438  29.825  66.740  0.00  0.00    -0.319 N 
HETATM    6  C           0       9.751  30.964  67.627  0.00  0.00     0.150 A 
HETATM    7  C           0      10.697  29.960  67.891  0.00  0.00     0.167 A 
HETATM    8  C           0      10.904  30.736  65.850  0.00  0.00     0.212 A 
HETATM    9  C           0       9.983  29.673  69.939  0.00  0.00     0.227 A 
HETATM   10 Cl           0      10.090  28.856  71.501  0.00  0.00    -0.041 Cl
ENDROOT
BRANCH   1  11
HETATM   11  N           0       7.893  32.216  68.645  0.00  0.00    -0.361 N 
HETATM   12  C           0       8.211  33.643  68.618  0.00  0.00     0.144 C 
HETATM   13  C           0       7.405  34.360  67.535  0.00  0.00     0.144 C 
HETATM   14  N           0       5.977  34.091  67.690  0.00  0.00    -0.363 N 
HETATM   15  C           0       5.592  33.091  68.684  0.00  0.00     0.144 C 
HETATM   16  C           0       6.469  31.845  68.575  0.00  0.00     0.144 C 
BRANCH  14  17
HETATM   17  C           0       5.046  34.726  66.907  0.00  0.00     0.125 A 
HETATM   18  C           0       3.689  34.835  67.311  0.00  0.00     0.051 A 
HETATM   19  C           0       2.797  35.477  66.472  0.00  0.00     0.021 A 
HETATM   20  C           0       3.244  36.009  65.256  0.00  0.00     0.065 A 
HETATM   21  C           0       4.597  35.863  64.952  0.00  0.00     0.135 A 
HETATM   22  N           0       5.476  35.246  65.738  0.00  0.00    -0.243 NA
BRANCH  20  23
HETATM   23  C           0       2.294  36.660  64.303  0.00  0.00     0.418 C 
HETATM   24  F           0       2.884  37.670  63.620  0.00  0.00    -0.166 F 
HETATM   25  F           0       1.222  37.203  64.933  0.00  0.00    -0.166 F 
HETATM   26  F           0       1.807  35.784  63.395  0.00  0.00    -0.166 F 
ENDBRANCH  20  23
ENDBRANCH  14  17
ENDBRANCH   1  11
BRANCH   5  27
HETATM   27  C           0      12.524  28.846  66.557  0.00  0.00     0.092 C 
HETATM   28  C           0      12.305  27.976  65.303  0.00  0.00     0.026 C 
HETATM   29  C           0      12.843  28.839  64.148  0.00  0.00     0.002 C 
HETATM   30  C           0      14.068  29.577  64.748  0.00  0.00     0.002 C 
HETATM   31  C           0      13.890  29.521  66.296  0.00  0.00     0.026 C 
ENDBRANCH   5  27
TORSDOF 4
ENDMDL
MODEL 9
REMARK VINA RESULT:      -7.2      5.310     10.164
REMARK  4 active torsions:
REMARK  status: ('A' for Active; 'I' for Inactive)
REMARK    1  A    between atoms: C_1  and  N_9 
REMARK    2  A    between atoms: N_5  and  C_6 
REMARK    3  A    between atoms: N_10  and  C_11 
REMARK    4  A    between atoms: C_15  and  C_17 
ROOT
HETATM    1  C           0       6.688  26.406  54.638  0.00  0.00     0.162 A 
HETATM    2  N           0       7.905  26.984  54.769  0.00  0.00    -0.198 NA
HETATM    3  N           0       8.282  26.094  56.968  0.00  0.00    -0.198 NA
HETATM    4  N           0       5.059  24.885  55.953  0.00  0.00    -0.236 NA
HETATM    5  N           0       6.435  24.721  57.740  0.00  0.00    -0.319 N 
HETATM    6  C           0       6.213  25.618  55.721  0.00  0.00     0.150 A 
HETATM    7  C           0       7.075  25.526  56.826  0.00  0.00     0.167 A 
HETATM    8  C           0       5.232  24.379  57.151  0.00  0.00     0.212 A 
HETATM    9  C           0       8.594  26.789  55.886  0.00  0.00     0.227 A 
HETATM   10 Cl           0      10.167  27.587  55.932  0.00  0.00    -0.041 Cl
ENDROOT
BRANCH   1  11
HETATM   11  N           0       6.005  26.619  53.482  0.00  0.00    -0.361 N 
HETATM   12  C           0       4.620  26.176  53.330  0.00  0.00     0.144 C 
HETATM   13  C           0       3.757  27.283  52.725  0.00  0.00     0.144 C 
HETATM   14  N           0       4.345  27.774  51.480  0.00  0.00    -0.363 N 
HETATM   15  C           0       5.677  27.282  51.135  0.00  0.00     0.144 C 
HETATM   16  C           0       6.609  27.331  52.344  0.00  0.00     0.144 C 
BRANCH  14  17
HETATM   17  C           0       3.684  28.684  50.694  0.00  0.00     0.125 A 
HETATM   18  C           0       3.718  30.074  50.982  0.00  0.00     0.051 A 
HETATM   19  C           0       3.022  30.939  50.158  0.00  0.00     0.021 A 
HETATM   20  C           0       2.310  30.435  49.061  0.00  0.00     0.065 A 
HETATM   21  C           0       2.347  29.056  48.852  0.00  0.00     0.135 A 
HETATM   22  N           0       3.004  28.201  49.633  0.00  0.00    -0.243 NA
BRANCH  20  23
HETATM   23  C           0       1.504  31.338  48.185  0.00  0.00     0.418 C 
HETATM   24  F           0       2.226  31.787  47.130  0.00  0.00    -0.166 F 
HETATM   25  F           0       1.067  32.441  48.843  0.00  0.00    -0.166 F 
HETATM   26  F           0       0.406  30.719  47.693  0.00  0.00    -0.166 F 
ENDBRANCH  20  23
ENDBRANCH  14  17
ENDBRANCH   1  11
BRANCH   5  27
HETATM   27  C           0       6.966  24.387  59.073  0.00  0.00     0.092 C 
HETATM   28  C           0       6.741  25.532  60.081  0.00  0.00     0.026 C 
HETATM   29  C           0       5.295  25.326  60.568  0.00  0.00     0.002 C 
HETATM   30  C           0       5.118  23.786  60.627  0.00  0.00     0.002 C 
HETATM   31  C           0       6.233  23.188  59.717  0.00  0.00     0.026 C 
ENDBRANCH   5  27
TORSDOF 4
ENDMDL
MODEL 10
REMARK VINA RESULT:     -11.9      0.000      0.000
REMARK  4 active torsions:
REMARK  status: ('A' for Active; 'I' for Inactive)
REMARK    1  A    between atoms: C_1  and  N_9 
REMARK    2  A    between atoms: N_5  and  C_6 
REMARK    3  A    between atoms: N_10  and  C_11 
REMARK    4  A    between atoms: C_15  and  C_17 
ROOT
HETATM    1  C           0       5.704  28.913  52.175  0.00  0.00     0.162 A 
HETATM    2  N           0       6.501  30.005  52.237  0.00  0.00    -0.198 NA
HETATM    3  N           0       5.272  31.210  50.561  0.00  0.00    -0.198 NA
HETATM    4  N           0       3.611  28.049  50.922  0.00  0.00    -0.236 NA
HETATM    5  N           0       3.386  29.943  49.707  0.00  0.00    -0.319 N 
HETATM    6  C           0       4.618  28.941  51.259  0.00  0.00     0.150 A 
HETATM    7  C           0       4.490  30.121  50.508  0.00  0.00     0.167 A 
HETATM    8  C           0       2.915  28.678  50.005  0.00  0.00     0.212 A 
HETATM    9  C           0       6.233  31.043  51.455  0.00  0.00     0.227 A 
HETATM   10 Cl           0       7.337  32.408  51.637  0.00  0.00    -0.041 Cl
ENDROOT
BRANCH   1  11
HETATM   11  N           0       5.998  27.864  52.989  0.00  0.00    -0.361 N 
HETATM   12  C           0       7.383  27.469  53.241  0.00  0.00     0.144 C 
HETATM   13  C           0       7.620  27.240  54.734  0.00  0.00     0.144 C 
HETATM   14  N           0       6.644  26.295  55.273  0.00  0.00    -0.363 N 
HETATM   15  C           0       5.551  25.891  54.390  0.00  0.00     0.144 C 
HETATM   16  C           0       4.947  27.099  53.679  0.00  0.00     0.144 C 
BRANCH  14  17
HETATM   17  C           0       6.734  25.841  56.565  0.00  0.00     0.125 A 
HETATM   18  C           0       5.747  24.981  57.118  0.00  0.00     0.051 A 
HETATM   19  C           0       5.889  24.567  58.429  0.00  0.00     0.021 A 
HETATM   20  C           0       6.994  24.992  59.179  0.00  0.00     0.065 A 
HETATM   21  C           0       7.916  25.826  58.545  0.00  0.00     0.135 A 
HETATM   22  N           0       7.801  26.243  57.286  0.00  0.00    -0.243 NA
BRANCH  20  23
HETATM   23  C           0       7.146  24.607  60.614  0.00  0.00     0.418 C 
HETATM   24  F           0       8.292  23.916  60.828  0.00  0.00    -0.166 F 
HETATM   25  F           0       6.137  23.809  61.045  0.00  0.00    -0.166 F 
HETATM   26  F           0       7.163  25.685  61.430  0.00  0.00    -0.166 F 
ENDBRANCH  20  23
ENDBRANCH  14  17
ENDBRANCH   1  11
BRANCH   5  27
HETATM   27  C           0       2.904  30.925  48.719  0.00  0.00     0.092 C 
HETATM   28  C           0       2.093  30.253  47.593  0.00  0.00     0.026 C 
HETATM   29  C           0       0.680  30.105  48.185  0.00  0.00     0.002 C 
HETATM   30  C           0       0.480  31.380  49.045  0.00  0.00     0.002 C 
HETATM   31  C           0       1.908  31.936  49.330  0.00  0.00     0.026 C 
ENDBRANCH   5  27
TORSDOF 4
ENDMDL
MODEL 11
REMARK VINA RESULT:      -8.9      5.848     10.248
REMARK  4 active torsions:
REMARK  status: ('A' for Active; 'I' for Inactive)
REMARK    1  A    between atoms: C_1  and  N_9 
REMARK    2  A    between atoms: N_5  and  C_6 
REMARK    3  A    between atoms: N_10  and  C_11 
REMARK    4  A    between atoms: C_15  and  C_17 
ROOT
HETATM    1  C           0       5.485  28.224  51.214  0.00  0.00     0.162 A 
HETATM    2  N           0       6.162  27.498  50.293  0.00  0.00    -0.198 NA
HETATM    3  N           0       6.873  25.836  51.876  0.00  0.00    -0.198 NA
HETATM    4  N           0       4.920  28.201  53.739  0.00  0.00    -0.236 NA
HETATM    5  N           0       6.061  26.287  54.119  0.00  0.00    -0.319 N 
HETATM    6  C           0       5.484  27.753  52.555  0.00  0.00     0.150 A 
HETATM    7  C           0       6.199  26.565  52.779  0.00  0.00     0.167 A 
HETATM    8  C           0       5.288  27.312  54.629  0.00  0.00     0.212 A 
HETATM    9  C           0       6.783  26.390  50.677  0.00  0.00     0.227 A 
HETATM   10 Cl           0       7.620  25.528  49.384  0.00  0.00    -0.041 Cl
ENDROOT
BRANCH   1  11
HETATM   11  N           0       4.855  29.353  50.794  0.00  0.00    -0.361 N 
HETATM   12  C           0       4.559  29.573  49.379  0.00  0.00     0.144 C 
HETATM   13  C           0       3.119  30.049  49.191  0.00  0.00     0.144 C 
HETATM   14  N           0       2.850  31.220  50.024  0.00  0.00    -0.363 N 
HETATM   15  C           0       3.884  31.608  50.981  0.00  0.00     0.144 C 
HETATM   16  C           0       4.411  30.391  51.739  0.00  0.00     0.144 C 
BRANCH  14  17
HETATM   17  C           0       1.661  31.899  49.931  0.00  0.00     0.125 A 
HETATM   18  C           0       0.884  31.873  48.742  0.00  0.00     0.051 A 
HETATM   19  C           0      -0.299  32.587  48.708  0.00  0.00     0.021 A 
HETATM   20  C           0      -0.710  33.309  49.836  0.00  0.00     0.065 A 
HETATM   21  C           0       0.113  33.263  50.961  0.00  0.00     0.135 A 
HETATM   22  N           0       1.259  32.589  51.019  0.00  0.00    -0.243 NA
BRANCH  20  23
HETATM   23  C           0      -1.956  34.135  49.812  0.00  0.00     0.418 C 
HETATM   24  F           0      -2.553  34.102  48.596  0.00  0.00    -0.166 F 
HETATM   25  F           0      -1.714  35.442  50.081  0.00  0.00    -0.166 F 
HETATM   26  F           0      -2.862  33.712  50.722  0.00  0.00    -0.166 F 
ENDBRANCH  20  23
ENDBRANCH  14  17
ENDBRANCH   1  11
BRANCH   5  27
HETATM   27  C           0       6.689  25.142  54.802  0.00  0.00     0.092 C 
HETATM   28  C           0       8.054  25.519  55.412  0.00  0.00     0.026 C 
HETATM   29  C           0       7.697  26.170  56.759  0.00  0.00     0.002 C 
HETATM   30  C           0       6.472  25.367  57.270  0.00  0.00     0.002 C 
HETATM   31  C           0       5.869  24.659  56.019  0.00  0.00     0.026 C 
ENDBRANCH   5  27
TORSDOF 4
ENDMDL
MODEL 12
REMARK VINA RESULT:      -8.3      4.793      7.690
REMARK  4 active torsions:
REMARK  status: ('A' for Active; 'I' for Inactive)
REMARK    1  A    between atoms: C_1  and  N_9 
REMARK    2  A    between atoms: N_5  and  C_6 
REMARK    3  A    between atoms: N_10  and  C_11 
REMARK    4  A    between atoms: C_15  and  C_17 
ROOT
HETATM    1  C           0       0.056  31.782  48.375  0.00  0.00     0.162 A 
HETATM    2  N           0      -0.763  31.552  47.321  0.00  0.00    -0.198 NA
HETATM    3  N           0      -2.191  33.423  47.803  0.00  0.00    -0.198 NA
HETATM    4  N           0       0.344  33.436  50.343  0.00  0.00    -0.236 NA
HETATM    5  N           0      -1.470  34.656  49.766  0.00  0.00    -0.319 N 
HETATM    6  C           0      -0.242  32.891  49.211  0.00  0.00     0.150 A 
HETATM    7  C           0      -1.373  33.639  48.844  0.00  0.00     0.167 A 
HETATM    8  C           0      -0.412  34.467  50.635  0.00  0.00     0.212 A 
HETATM    9  C           0      -1.791  32.365  47.115  0.00  0.00     0.227 A 
HETATM   10 Cl           0      -2.776  31.967  45.706  0.00  0.00    -0.041 Cl
ENDROOT
BRANCH   1  11
HETATM   11  N           0       1.103  30.936  48.561  0.00  0.00    -0.361 N 
HETATM   12  C           0       2.475  31.357  48.279  0.00  0.00     0.144 C 
HETATM   13  C           0       3.410  30.966  49.423  0.00  0.00     0.144 C 
HETATM   14  N           0       3.296  29.539  49.719  0.00  0.00    -0.363 N 
HETATM   15  C           0       2.233  28.801  49.038  0.00  0.00     0.144 C 
HETATM   16  C           0       0.916  29.572  49.084  0.00  0.00     0.144 C 
BRANCH  14  17
HETATM   17  C           0       4.128  28.933  50.626  0.00  0.00     0.125 A 
HETATM   18  C           0       4.705  29.659  51.703  0.00  0.00     0.051 A 
HETATM   19  C           0       5.545  28.993  52.576  0.00  0.00     0.021 A 
HETATM   20  C           0       5.805  27.629  52.390  0.00  0.00     0.065 A 
HETATM   21  C           0       5.183  27.000  51.311  0.00  0.00     0.135 A 
HETATM   22  N           0       4.374  27.618  50.453  0.00  0.00    -0.243 NA
BRANCH  20  23
HETATM   23  C           0       6.751  26.895  53.284  0.00  0.00     0.418 C 
HETATM   24  F           0       7.642  27.735  53.865  0.00  0.00    -0.166 F 
HETATM   25  F           0       7.483  25.970  52.614  0.00  0.00    -0.166 F 
HETATM   26  F           0       6.106  26.237  54.274  0.00  0.00    -0.166 F 
ENDBRANCH  20  23
ENDBRANCH  14  17
ENDBRANCH   1  11
BRANCH   5  27
HETATM   27  C           0      -2.545  35.664  49.786  0.00  0.00     0.092 C 
HETATM   28  C           0      -2.194  36.856  50.699  0.00  0.00     0.026 C 
HETATM   29  C           0      -1.316  37.760  49.816  0.00  0.00     0.002 C 
HETATM   30  C           0      -1.926  37.632  48.395  0.00  0.00     0.002 C 
HETATM   31  C           0      -2.765  36.319  48.403  0.00  0.00     0.026 C 
ENDBRANCH   5  27
TORSDOF 4
ENDMDL
MODEL 13
REMARK VINA RESULT:      -7.9      1.837      2.205
REMARK  4 active torsions:
REMARK  status: ('A' for Active; 'I' for Inactive)
REMARK    1  A    between atoms: C_1  and  N_9 
REMARK    2  A    between atoms: N_5  and  C_6 
REMARK    3  A    between atoms: N_10  and  C_11 
REMARK    4  A    between atoms: C_15  and  C_17 
ROOT
HETATM    1  C           0       5.248  27.263  52.067  0.00  0.00     0.162 A 
HETATM    2  N           0       6.326  26.925  51.320  0.00  0.00    -0.198 NA
HETATM    3  N           0       5.802  28.467  49.554  0.00  0.00    -0.198 NA
HETATM    4  N           0       3.213  28.861  52.008  0.00  0.00    -0.236 NA
HETATM    5  N           0       3.780  29.734  50.001  0.00  0.00    -0.319 N 
HETATM    6  C           0       4.377  28.260  51.552  0.00  0.00     0.150 A 
HETATM    7  C           0       4.737  28.793  50.303  0.00  0.00     0.167 A 
HETATM    8  C           0       2.898  29.715  51.065  0.00  0.00     0.212 A 
HETATM    9  C           0       6.521  27.534  50.158  0.00  0.00     0.227 A 
HETATM   10 Cl           0       7.964  27.013  49.284  0.00  0.00    -0.041 Cl
ENDROOT
BRANCH   1  11
HETATM   11  N           0       5.073  26.626  53.255  0.00  0.00    -0.361 N 
HETATM   12  C           0       5.323  25.192  53.388  0.00  0.00     0.144 C 
HETATM   13  C           0       6.154  24.897  54.636  0.00  0.00     0.144 C 
HETATM   14  N           0       5.534  25.486  55.821  0.00  0.00    -0.363 N 
HETATM   15  C           0       4.386  26.364  55.604  0.00  0.00     0.144 C 
HETATM   16  C           0       4.657  27.349  54.468  0.00  0.00     0.144 C 
BRANCH  14  17
HETATM   17  C           0       6.035  25.249  57.076  0.00  0.00     0.125 A 
HETATM   18  C           0       7.316  25.726  57.465  0.00  0.00     0.051 A 
HETATM   19  C           0       7.768  25.444  58.740  0.00  0.00     0.021 A 
HETATM   20  C           0       6.963  24.709  59.620  0.00  0.00     0.065 A 
HETATM   21  C           0       5.715  24.296  59.152  0.00  0.00     0.135 A 
HETATM   22  N           0       5.257  24.548  57.928  0.00  0.00    -0.243 NA
BRANCH  20  23
HETATM   23  C           0       7.447  24.342  60.985  0.00  0.00     0.418 C 
HETATM   24  F           0       6.596  23.489  61.604  0.00  0.00    -0.166 F 
HETATM   25  F           0       7.563  25.421  61.799  0.00  0.00    -0.166 F 
HETATM   26  F           0       8.663  23.751  60.950  0.00  0.00    -0.166 F 
ENDBRANCH  20  23
ENDBRANCH  14  17
ENDBRANCH   1  11
BRANCH   5  27
HETATM   27  C           0       3.744  30.516  48.753  0.00  0.00     0.092 C 
HETATM   28  C           0       2.922  29.807  47.657  0.00  0.00     0.026 C 
HETATM   29  C           0       1.465  30.185  47.976  0.00  0.00     0.002 C 
HETATM   30  C           0       1.543  31.646  48.491  0.00  0.00     0.002 C 
HETATM   31  C           0       3.022  31.872  48.927  0.00  0.00     0.026 C 
ENDBRANCH   5  27
TORSDOF 4
ENDMDL
MODEL 14
REMARK VINA RESULT:      -7.9      2.126      2.837
REMARK  4 active torsions:
REMARK  status: ('A' for Active; 'I' for Inactive)
REMARK    1  A    between atoms: C_1  and  N_9 
REMARK    2  A    between atoms: N_5  and  C_6 
REMARK    3  A    between atoms: N_10  and  C_11 
REMARK    4  A    between atoms: C_15  and  C_17 
ROOT
HETATM    1  C           0       6.939  27.053  52.357  0.00  0.00     0.162 A 
HETATM    2  N           0       7.320  26.379  51.246  0.00  0.00    -0.198 NA
HETATM    3  N           0       6.373  27.988  49.735  0.00  0.00    -0.198 NA
HETATM    4  N           0       5.695  29.218  53.037  0.00  0.00    -0.236 NA
HETATM    5  N           0       5.320  29.841  50.897  0.00  0.00    -0.319 N 
HETATM    6  C           0       6.230  28.271  52.177  0.00  0.00     0.150 A 
HETATM    7  C           0       6.000  28.647  50.843  0.00  0.00     0.167 A 
HETATM    8  C           0       5.169  30.118  52.242  0.00  0.00     0.212 A 
HETATM    9  C           0       7.024  26.881  50.055  0.00  0.00     0.227 A 
HETATM   10 Cl           0       7.583  25.915  48.687  0.00  0.00    -0.041 Cl
ENDROOT
BRANCH   1  11
HETATM   11  N           0       7.257  26.518  53.565  0.00  0.00    -0.361 N 
HETATM   12  C           0       7.813  27.346  54.635  0.00  0.00     0.144 C 
HETATM   13  C           0       7.104  27.069  55.961  0.00  0.00     0.144 C 
HETATM   14  N           0       7.124  25.641  56.269  0.00  0.00    -0.363 N 
HETATM   15  C           0       7.626  24.743  55.230  0.00  0.00     0.144 C 
HETATM   16  C           0       7.031  25.095  53.868  0.00  0.00     0.144 C 
BRANCH  14  17
HETATM   17  C           0       6.656  25.166  57.468  0.00  0.00     0.125 A 
HETATM   18  C           0       7.423  25.278  58.659  0.00  0.00     0.051 A 
HETATM   19  C           0       6.901  24.769  59.833  0.00  0.00     0.021 A 
HETATM   20  C           0       5.636  24.167  59.831  0.00  0.00     0.065 A 
HETATM   21  C           0       4.954  24.116  58.616  0.00  0.00     0.135 A 
HETATM   22  N           0       5.435  24.592  57.469  0.00  0.00    -0.243 NA
BRANCH  20  23
HETATM   23  C           0       5.069  23.560  61.073  0.00  0.00     0.418 C 
HETATM   24  F           0       6.040  23.242  61.962  0.00  0.00    -0.166 F 
HETATM   25  F           0       4.392  22.411  60.823  0.00  0.00    -0.166 F 
HETATM   26  F           0       4.204  24.393  61.695  0.00  0.00    -0.166 F 
ENDBRANCH  20  23
ENDBRANCH  14  17
ENDBRANCH   1  11
BRANCH   5  27
HETATM   27  C           0       4.838  30.580  49.717  0.00  0.00     0.092 C 
HETATM   28  C           0       3.788  29.773  48.926  0.00  0.00     0.026 C 
HETATM   29  C           0       2.469  30.039  49.673  0.00  0.00     0.002 C 
HETATM   30  C           0       2.570  31.516  50.135  0.00  0.00     0.002 C 
HETATM   31  C           0       4.087  31.876  50.098  0.00  0.00     0.026 C 
ENDBRANCH   5  27
TORSDOF 4
ENDMDL
MODEL 15
REMARK VINA RESULT:      -7.8      2.253      3.371
REMARK  4 active torsions:
REMARK  status: ('A' for Active; 'I' for Inactive)
REMARK    1  A    between atoms: C_1  and  N_9 
REMARK    2  A    between atoms: N_5  and  C_6 
REMARK    3  A    between atoms: N_10  and  C_11 
REMARK    4  A    between atoms: C_15  and  C_17 
ROOT
HETATM    1  C           0       4.892  27.543  52.371  0.00  0.00     0.162 A 
HETATM    2  N           0       3.734  27.456  51.677  0.00  0.00    -0.198 NA
HETATM    3  N           0       4.145  29.451  50.404  0.00  0.00    -0.198 NA
HETATM    4  N           0       6.982  29.058  52.567  0.00  0.00    -0.236 NA
HETATM    5  N           0       6.261  30.494  50.976  0.00  0.00    -0.319 N 
HETATM    6  C           0       5.750  28.641  52.087  0.00  0.00     0.150 A 
HETATM    7  C           0       5.290  29.528  51.100  0.00  0.00     0.167 A 
HETATM    8  C           0       7.240  30.150  51.889  0.00  0.00     0.212 A 
HETATM    9  C           0       3.455  28.383  50.770  0.00  0.00     0.227 A 
HETATM   10 Cl           0       1.922  28.152  49.926  0.00  0.00    -0.041 Cl
ENDROOT
BRANCH   1  11
HETATM   11  N           0       5.156  26.579  53.292  0.00  0.00    -0.361 N 
HETATM   12  C           0       6.459  25.919  53.344  0.00  0.00     0.144 C 
HETATM   13  C           0       6.978  25.851  54.780  0.00  0.00     0.144 C 
HETATM   14  N           0       5.986  25.237  55.660  0.00  0.00    -0.363 N 
HETATM   15  C           0       4.666  24.972  55.092  0.00  0.00     0.144 C 
HETATM   16  C           0       4.160  26.176  54.300  0.00  0.00     0.144 C 
BRANCH  14  17
HETATM   17  C           0       6.277  24.957  56.972  0.00  0.00     0.125 A 
HETATM   18  C           0       5.322  24.345  57.828  0.00  0.00     0.051 A 
HETATM   19  C           0       5.673  24.101  59.142  0.00  0.00     0.021 A 
HETATM   20  C           0       6.950  24.449  59.601  0.00  0.00     0.065 A 
HETATM   21  C           0       7.822  25.034  58.682  0.00  0.00     0.135 A 
HETATM   22  N           0       7.509  25.286  57.413  0.00  0.00    -0.243 NA
BRANCH  20  23
HETATM   23  C           0       7.338  24.247  61.029  0.00  0.00     0.418 C 
HETATM   24  F           0       6.411  23.523  61.701  0.00  0.00    -0.166 F 
HETATM   25  F           0       7.464  25.419  61.701  0.00  0.00    -0.166 F 
HETATM   26  F           0       8.522  23.604  61.147  0.00  0.00    -0.166 F 
ENDBRANCH  20  23
ENDBRANCH  14  17
ENDBRANCH   1  11
BRANCH   5  27
HETATM   27  C           0       6.173  31.655  50.073  0.00  0.00     0.092 C 
HETATM   28  C           0       5.164  32.703  50.587  0.00  0.00     0.026 C 
HETATM   29  C           0       5.964  33.521  51.615  0.00  0.00     0.002 C 
HETATM   30  C           0       7.397  33.601  51.025  0.00  0.00     0.002 C 
HETATM   31  C           0       7.501  32.441  49.989  0.00  0.00     0.026 C 
ENDBRANCH   5  27
TORSDOF 4
ENDMDL
MODEL 16
REMARK VINA RESULT:      -7.5      1.905      2.600
REMARK  4 active torsions:
REMARK  status: ('A' for Active; 'I' for Inactive)
REMARK    1  A    between atoms: C_1  and  N_9 
REMARK    2  A    between atoms: N_5  and  C_6 
REMARK    3  A    between atoms: N_10  and  C_11 
REMARK    4  A    between atoms: C_15  and  C_17 
ROOT
HETATM    1  C           0       4.144  27.537  52.026  0.00  0.00     0.162 A 
HETATM    2  N           0       2.833  27.198  52.009  0.00  0.00    -0.198 NA
HETATM    3  N           0       2.270  28.780  50.291  0.00  0.00    -0.198 NA
HETATM    4  N           0       5.794  29.154  50.859  0.00  0.00    -0.236 NA
HETATM    5  N           0       4.196  30.051  49.535  0.00  0.00    -0.319 N 
HETATM    6  C           0       4.573  28.555  51.133  0.00  0.00     0.150 A 
HETATM    7  C           0       3.571  29.107  50.318  0.00  0.00     0.167 A 
HETATM    8  C           0       5.523  30.027  49.919  0.00  0.00     0.212 A 
HETATM    9  C           0       2.019  27.821  51.167  0.00  0.00     0.227 A 
HETATM   10 Cl           0       0.338  27.284  51.233  0.00  0.00    -0.041 Cl
ENDROOT
BRANCH   1  11
HETATM   11  N           0       4.958  26.881  52.895  0.00  0.00    -0.361 N 
HETATM   12  C           0       6.279  27.408  53.237  0.00  0.00     0.144 C 
HETATM   13  C           0       6.506  27.368  54.748  0.00  0.00     0.144 C 
HETATM   14  N           0       6.268  26.024  55.271  0.00  0.00    -0.363 N 
HETATM   15  C           0       5.707  25.040  54.347  0.00  0.00     0.144 C 
HETATM   16  C           0       4.542  25.634  53.558  0.00  0.00     0.144 C 
BRANCH  14  17
HETATM   17  C           0       6.529  25.716  56.583  0.00  0.00     0.125 A 
HETATM   18  C           0       7.690  26.204  57.242  0.00  0.00     0.051 A 
HETATM   19  C           0       7.901  25.848  58.560  0.00  0.00     0.021 A 
HETATM   20  C           0       6.975  25.028  59.219  0.00  0.00     0.065 A 
HETATM   21  C           0       5.861  24.609  58.492  0.00  0.00     0.135 A 
HETATM   22  N           0       5.635  24.932  57.221  0.00  0.00    -0.243 NA
BRANCH  20  23
HETATM   23  C           0       7.205  24.582  60.626  0.00  0.00     0.418 C 
HETATM   24  F           0       7.324  25.634  61.471  0.00  0.00    -0.166 F 
HETATM   25  F           0       8.344  23.857  60.759  0.00  0.00    -0.166 F 
HETATM   26  F           0       6.196  23.806  61.083  0.00  0.00    -0.166 F 
ENDBRANCH  20  23
ENDBRANCH  14  17
ENDBRANCH   1  11
BRANCH   5  27
HETATM   27  C           0       3.508  30.909  48.555  0.00  0.00     0.092 C 
HETATM   28  C           0       2.864  30.082  47.424  0.00  0.00     0.026 C 
HETATM   29  C           0       1.520  29.621  48.014  0.00  0.00     0.002 C 
HETATM   30  C           0       1.043  30.814  48.884  0.00  0.00     0.002 C 
HETATM   31  C           0       2.313  31.671  49.173  0.00  0.00     0.026 C 
ENDBRANCH   5  27
TORSDOF 4
ENDMDL
MODEL 17
REMARK VINA RESULT:      -7.4     13.980     17.038
REMARK  4 active torsions:
REMARK  status: ('A' for Active; 'I' for Inactive)
REMARK    1  A    between atoms: C_1  and  N_9 
REMARK    2  A    between atoms: N_5  and  C_6 
REMARK    3  A    between atoms: N_10  and  C_11 
REMARK    4  A    between atoms: C_15  and  C_17 
ROOT
HETATM    1  C           0       9.780  32.931  68.585  0.00  0.00     0.162 A 
HETATM    2  N           0      10.411  32.865  69.780  0.00  0.00    -0.198 NA
HETATM    3  N           0      12.097  31.342  69.001  0.00  0.00    -0.198 NA
HETATM    4  N           0       9.967  31.982  66.185  0.00  0.00    -0.236 NA
HETATM    5  N           0      11.815  30.769  66.658  0.00  0.00    -0.319 N 
HETATM    6  C           0      10.316  32.166  67.514  0.00  0.00     0.150 A 
HETATM    7  C           0      11.462  31.414  67.821  0.00  0.00     0.167 A 
HETATM    8  C           0      10.872  31.153  65.724  0.00  0.00     0.212 A 
HETATM    9  C           0      11.492  32.104  69.897  0.00  0.00     0.227 A 
HETATM   10 Cl           0      12.230  32.110  71.501  0.00  0.00    -0.041 Cl
ENDROOT
BRANCH   1  11
HETATM   11  N           0       8.677  33.720  68.491  0.00  0.00    -0.361 N 
HETATM   12  C           0       8.792  35.147  68.191  0.00  0.00     0.144 C 
HETATM   13  C           0       7.795  35.557  67.108  0.00  0.00     0.144 C 
HETATM   14  N           0       6.439  35.153  67.473  0.00  0.00    -0.363 N 
HETATM   15  C           0       6.293  34.309  68.658  0.00  0.00     0.144 C 
HETATM   16  C           0       7.318  33.177  68.653  0.00  0.00     0.144 C 
BRANCH  14  17
HETATM   17  C           0       5.358  35.522  66.712  0.00  0.00     0.125 A 
HETATM   18  C           0       4.046  35.554  67.255  0.00  0.00     0.051 A 
HETATM   19  C           0       2.998  35.923  66.433  0.00  0.00     0.021 A 
HETATM   20  C           0       3.246  36.263  65.097  0.00  0.00     0.065 A 
HETATM   21  C           0       4.569  36.214  64.659  0.00  0.00     0.135 A 
HETATM   22  N           0       5.596  35.857  65.427  0.00  0.00    -0.243 NA
BRANCH  20  23
HETATM   23  C           0       2.127  36.614  64.170  0.00  0.00     0.418 C 
HETATM   24  F           0       1.719  35.540  63.452  0.00  0.00    -0.166 F 
HETATM   25  F           0       2.482  37.562  63.267  0.00  0.00    -0.166 F 
HETATM   26  F           0       1.051  37.093  64.833  0.00  0.00    -0.166 F 
ENDBRANCH  20  23
ENDBRANCH  14  17
ENDBRANCH   1  11
BRANCH   5  27
HETATM   27  C           0      12.947  29.834  66.534  0.00  0.00     0.092 C 
HETATM   28  C           0      12.611  28.449  67.123  0.00  0.00     0.026 C 
HETATM   29  C           0      11.852  27.734  65.991  0.00  0.00     0.002 C 
HETATM   30  C           0      12.546  28.213  64.689  0.00  0.00     0.002 C 
HETATM   31  C           0      13.300  29.526  65.061  0.00  0.00     0.026 C 
ENDBRANCH   5  27
TORSDOF 4
ENDMDL
MODEL 18
REMARK VINA RESULT:      -7.2     14.002     16.822
REMARK  4 active torsions:
REMARK  status: ('A' for Active; 'I' for Inactive)
REMARK    1  A    between atoms: C_1  and  N_9 
REMARK    2  A    between atoms: N_5  and  C_6 
REMARK    3  A    between atoms: N_10  and  C_11 
REMARK    4  A    between atoms: C_15  and  C_17 
ROOT
HETATM    1  C           0       8.830  31.271  68.703  0.00  0.00     0.162 A 
HETATM    2  N           0       9.001  30.590  69.861  0.00  0.00    -0.198 NA
HETATM    3  N           0      10.839  29.288  69.025  0.00  0.00    -0.198 NA
HETATM    4  N           0       9.840  31.432  66.326  0.00  0.00    -0.236 NA
HETATM    5  N           0      11.392  29.838  66.726  0.00  0.00    -0.319 N 
HETATM    6  C           0       9.701  30.963  67.623  0.00  0.00     0.150 A 
HETATM    7  C           0      10.659  29.969  67.883  0.00  0.00     0.167 A 
HETATM    8  C           0      10.841  30.741  65.837  0.00  0.00     0.212 A 
HETATM    9  C           0       9.964  29.681  69.937  0.00  0.00     0.227 A 
HETATM   10 Cl           0      10.092  28.871  71.500  0.00  0.00    -0.041 Cl
ENDROOT
BRANCH   1  11
HETATM   11  N           0       7.838  32.199  68.652  0.00  0.00    -0.361 N 
HETATM   12  C           0       8.139  33.630  68.677  0.00  0.00     0.144 C 
HETATM   13  C           0       7.351  34.371  67.597  0.00  0.00     0.144 C 
HETATM   14  N           0       5.923  34.081  67.709  0.00  0.00    -0.363 N 
HETATM   15  C           0       5.527  33.046  68.662  0.00  0.00     0.144 C 
HETATM   16  C           0       6.422  31.815  68.536  0.00  0.00     0.144 C 
BRANCH  14  17
HETATM   17  C           0       5.004  34.729  66.924  0.00  0.00     0.125 A 
HETATM   18  C           0       3.659  34.905  67.349  0.00  0.00     0.051 A 
HETATM   19  C           0       2.778  35.556  66.506  0.00  0.00     0.021 A 
HETATM   20  C           0       3.222  36.033  65.266  0.00  0.00     0.065 A 
HETATM   21  C           0       4.563  35.824  64.943  0.00  0.00     0.135 A 
HETATM   22  N           0       5.431  35.196  65.732  0.00  0.00    -0.243 NA
BRANCH  20  23
HETATM   23  C           0       2.281  36.693  64.312  0.00  0.00     0.418 C 
HETATM   24  F           0       1.200  37.205  64.949  0.00  0.00    -0.166 F 
HETATM   25  F           0       1.799  35.830  63.382  0.00  0.00    -0.166 F 
HETATM   26  F           0       2.870  37.704  63.634  0.00  0.00    -0.166 F 
ENDBRANCH  20  23
ENDBRANCH  14  17
ENDBRANCH   1  11
BRANCH   5  27
HETATM   27  C           0      12.487  28.869  66.537  0.00  0.00     0.092 C 
HETATM   28  C           0      12.282  28.015  65.270  0.00  0.00     0.026 C 
HETATM   29  C           0      12.822  28.897  64.131  0.00  0.00     0.002 C 
HETATM   30  C           0      14.038  29.636  64.750  0.00  0.00     0.002 C 
HETATM   31  C           0      13.849  29.557  66.295  0.00  0.00     0.026 C 
ENDBRANCH   5  27
TORSDOF 4
ENDMDL
MODEL 19
REMARK VINA RESULT:     -11.9      0.000      0.000
REMARK  4 active torsions:
REMARK  status: ('A' for Active; 'I' for Inactive)
REMARK    1  A    between atoms: C_1  and  N_9 
REMARK    2  A    between atoms: N_5  and  C_6 
REMARK    3  A    between atoms: N_10  and  C_11 
REMARK    4  A    between atoms: C_15  and  C_17 
ROOT
HETATM    1  C           0       5.705  28.922  52.164  0.00  0.00     0.162 A 
HETATM    2  N           0       6.514  30.005  52.222  0.00  0.00    -0.198 NA
HETATM    3  N           0       5.297  31.220  50.545  0.00  0.00    -0.198 NA
HETATM    4  N           0       3.600  28.080  50.916  0.00  0.00    -0.236 NA
HETATM    5  N           0       3.395  29.973  49.696  0.00  0.00    -0.319 N 
HETATM    6  C           0       4.617  28.960  51.250  0.00  0.00     0.150 A 
HETATM    7  C           0       4.502  30.140  50.496  0.00  0.00     0.167 A 
HETATM    8  C           0       2.910  28.715  49.999  0.00  0.00     0.212 A 
HETATM    9  C           0       6.258  31.044  51.438  0.00  0.00     0.227 A 
HETATM   10 Cl           0       7.378  32.396  51.614  0.00  0.00    -0.041 Cl
ENDROOT
BRANCH   1  11
HETATM   11  N           0       5.987  27.872  52.980  0.00  0.00    -0.361 N 
HETATM   12  C           0       7.367  27.455  53.226  0.00  0.00     0.144 C 
HETATM   13  C           0       7.610  27.229  54.717  0.00  0.00     0.144 C 
HETATM   14  N           0       6.622  26.302  55.266  0.00  0.00    -0.363 N 
HETATM   15  C           0       5.518  25.911  54.392  0.00  0.00     0.144 C 
HETATM   16  C           0       4.928  27.126  53.680  0.00  0.00     0.144 C 
BRANCH  14  17
HETATM   17  C           0       6.713  25.851  56.559  0.00  0.00     0.125 A 
HETATM   18  C           0       5.710  25.020  57.126  0.00  0.00     0.051 A 
HETATM   19  C           0       5.854  24.609  58.438  0.00  0.00     0.021 A 
HETATM   20  C           0       6.978  25.007  59.175  0.00  0.00     0.065 A 
HETATM   21  C           0       7.915  25.813  58.527  0.00  0.00     0.135 A 
HETATM   22  N           0       7.798  26.228  57.268  0.00  0.00    -0.243 NA
BRANCH  20  23
HETATM   23  C           0       7.134  24.624  60.610  0.00  0.00     0.418 C 
HETATM   24  F           0       8.271  23.917  60.818  0.00  0.00    -0.166 F 
HETATM   25  F           0       6.116  23.843  61.050  0.00  0.00    -0.166 F 
HETATM   26  F           0       7.173  25.705  61.422  0.00  0.00    -0.166 F 
ENDBRANCH  20  23
ENDBRANCH  14  17
ENDBRANCH   1  11
BRANCH   5  27
HETATM   27  C           0       2.924  30.958  48.707  0.00  0.00     0.092 C 
HETATM   28  C           0       2.082  30.297  47.597  0.00  0.00     0.026 C 
HETATM   29  C           0       0.674  30.187  48.209  0.00  0.00     0.002 C 
HETATM   30  C           0       0.515  31.473  49.061  0.00  0.00     0.002 C 
HETATM   31  C           0       1.960  31.998  49.323  0.00  0.00     0.026 C 
ENDBRANCH   5  27
TORSDOF 4
ENDMDL
MODEL 20
REMARK VINA RESULT:      -9.1      5.854     10.254
REMARK  4 active torsions:
REMARK  status: ('A' for Active; 'I' for Inactive)
REMARK    1  A    between atoms: C_1  and  N_9 
REMARK    2  A    between atoms: N_5  and  C_6 
REMARK    3  A    between atoms: N_10  and  C_11 
REMARK    4  A    between atoms: C_15  and  C_17 
ROOT
HETATM    1  C           0       5.476  28.316  51.124  0.00  0.00     0.162 A 
HETATM    2  N           0       6.165  27.593  50.210  0.00  0.00    -0.198 NA
HETATM    3  N           0       6.882  25.943  51.802  0.00  0.00    -0.198 NA
HETATM    4  N           0       4.896  28.295  53.646  0.00  0.00    -0.236 NA
HETATM    5  N           0       6.052  26.393  54.039  0.00  0.00    -0.319 N 
HETATM    6  C           0       5.471  27.849  52.467  0.00  0.00     0.150 A 
HETATM    7  C           0       6.196  26.668  52.699  0.00  0.00     0.167 A 
HETATM    8  C           0       5.266  27.412  54.542  0.00  0.00     0.212 A 
HETATM    9  C           0       6.794  26.492  50.601  0.00  0.00     0.227 A 
HETATM   10 Cl           0       7.647  25.633  49.316  0.00  0.00    -0.041 Cl
ENDROOT
BRANCH   1  11
HETATM   11  N           0       4.838  29.438  50.697  0.00  0.00    -0.361 N 
HETATM   12  C           0       4.498  29.624  49.287  0.00  0.00     0.144 C 
HETATM   13  C           0       3.056  30.104  49.134  0.00  0.00     0.144 C 
HETATM   14  N           0       2.818  31.296  49.946  0.00  0.00    -0.363 N 
HETATM   15  C           0       3.884  31.701  50.860  0.00  0.00     0.144 C 
HETATM   16  C           0       4.429  30.501  51.631  0.00  0.00     0.144 C 
BRANCH  14  17
HETATM   17  C           0       1.630  31.979  49.874  0.00  0.00     0.125 A 
HETATM   18  C           0       0.873  32.025  48.673  0.00  0.00     0.051 A 
HETATM   19  C           0      -0.310  32.740  48.663  0.00  0.00     0.021 A 
HETATM   20  C           0      -0.741  33.392  49.825  0.00  0.00     0.065 A 
HETATM   21  C           0       0.064  33.279  50.959  0.00  0.00     0.135 A 
HETATM   22  N           0       1.210  32.602  50.995  0.00  0.00    -0.243 NA
BRANCH  20  23
HETATM   23  C           0      -1.987  34.217  49.830  0.00  0.00     0.418 C 
HETATM   24  F           0      -2.620  34.172  48.633  0.00  0.00    -0.166 F 
HETATM   25  F           0      -1.737  35.528  50.078  0.00  0.00    -0.166 F 
HETATM   26  F           0      -2.865  33.804  50.771  0.00  0.00    -0.166 F 
ENDBRANCH  20  23
ENDBRANCH  14  17
ENDBRANCH   1  11
BRANCH   5  27
HETATM   27  C           0       6.686  25.256  54.729  0.00  0.00     0.092 C 
HETATM   28  C           0       8.064  25.635  55.309  0.00  0.00     0.026 C 
HETATM   29  C           0       7.733  26.310  56.652  0.00  0.00     0.002 C 
HETATM   30  C           0       6.513  25.522  57.197  0.00  0.00     0.002 C 
HETATM   31  C           0       5.885  24.796  55.968  0.00  0.00     0.026 C 
ENDBRANCH   5  27
TORSDOF 4
ENDMDL
MODEL 21
REMARK VINA RESULT:      -8.3      4.749      7.651
REMARK  4 active torsions:
REMARK  status: ('A' for Active; 'I' for Inactive)
REMARK    1  A    between atoms: C_1  and  N_9 
REMARK    2  A    between atoms: N_5  and  C_6 
REMARK    3  A    between atoms: N_10  and  C_11 
REMARK    4  A    between atoms: C_15  and  C_17 
ROOT
HETATM    1  C           0       0.071  31.752  48.393  0.00  0.00     0.162 A 
HETATM    2  N           0      -0.737  31.540  47.327  0.00  0.00    -0.198 NA
HETATM    3  N           0      -2.157  33.416  47.810  0.00  0.00    -0.198 NA
HETATM    4  N           0       0.346  33.385  50.382  0.00  0.00    -0.236 NA
HETATM    5  N           0      -1.451  34.624  49.795  0.00  0.00    -0.319 N 
HETATM    6  C           0      -0.229  32.856  49.237  0.00  0.00     0.150 A 
HETATM    7  C           0      -1.350  33.616  48.864  0.00  0.00     0.167 A 
HETATM    8  C           0      -0.406  34.418  50.675  0.00  0.00     0.212 A 
HETATM    9  C           0      -1.756  32.363  47.117  0.00  0.00     0.227 A 
HETATM   10 Cl           0      -2.726  31.986  45.691  0.00  0.00    -0.041 Cl
ENDROOT
BRANCH   1  11
HETATM   11  N           0       1.109  30.897  48.584  0.00  0.00    -0.361 N 
HETATM   12  C           0       2.484  31.297  48.285  0.00  0.00     0.144 C 
HETATM   13  C           0       3.423  30.911  49.427  0.00  0.00     0.144 C 
HETATM   14  N           0       3.294  29.491  49.746  0.00  0.00    -0.363 N 
HETATM   15  C           0       2.217  28.756  49.084  0.00  0.00     0.144 C 
HETATM   16  C           0       0.910  29.543  49.129  0.00  0.00     0.144 C 
BRANCH  14  17
HETATM   17  C           0       4.126  28.888  50.655  0.00  0.00     0.125 A 
HETATM   18  C           0       4.692  29.615  51.737  0.00  0.00     0.051 A 
HETATM   19  C           0       5.532  28.953  52.612  0.00  0.00     0.021 A 
HETATM   20  C           0       5.803  27.591  52.423  0.00  0.00     0.065 A 
HETATM   21  C           0       5.192  26.961  51.340  0.00  0.00     0.135 A 
HETATM   22  N           0       4.383  27.575  50.479  0.00  0.00    -0.243 NA
BRANCH  20  23
HETATM   23  C           0       6.751  26.862  53.320  0.00  0.00     0.418 C 
HETATM   24  F           0       6.107  26.280  54.360  0.00  0.00    -0.166 F 
HETATM   25  F           0       7.684  27.684  53.863  0.00  0.00    -0.166 F 
HETATM   26  F           0       7.424  25.890  52.663  0.00  0.00    -0.166 F 
ENDBRANCH  20  23
ENDBRANCH  14  17
ENDBRANCH   1  11
BRANCH   5  27
HETATM   27  C           0      -2.519  35.640  49.811  0.00  0.00     0.092 C 
HETATM   28  C           0      -2.164  36.827  50.729  0.00  0.00     0.026 C 
HETATM   29  C           0      -1.275  37.727  49.853  0.00  0.00     0.002 C 
HETATM   30  C           0      -1.878  37.607  48.429  0.00  0.00     0.002 C 
HETATM   31  C           0      -2.727  36.299  48.429  0.00  0.00     0.026 C 
ENDBRANCH   5  27
TORSDOF 4
ENDMDL
MODEL 22
REMARK VINA RESULT:      -7.8      1.853      2.223
REMARK  4 active torsions:
REMARK  status: ('A' for Active; 'I' for Inactive)
REMARK    1  A    between atoms: C_1  and  N_9 
REMARK    2  A    between atoms: N_5  and  C_6 
REMARK    3  A    between atoms: N_10  and  C_11 
REMARK    4  A    between atoms: C_15  and  C_17 
ROOT
HETATM    1  C           0       5.201  27.264  52.064  0.00  0.00     0.162 A 
HETATM    2  N           0       6.258  26.894  51.304  0.00  0.00    -0.198 NA
HETATM    3  N           0       5.759  28.451  49.544  0.00  0.00    -0.198 NA
HETATM    4  N           0       3.215  28.922  52.031  0.00  0.00    -0.236 NA
HETATM    5  N           0       3.782  29.778  50.016  0.00  0.00    -0.319 N 
HETATM    6  C           0       4.354  28.287  51.560  0.00  0.00     0.150 A 
HETATM    7  C           0       4.714  28.809  50.306  0.00  0.00     0.167 A 
HETATM    8  C           0       2.914  29.786  51.091  0.00  0.00     0.212 A 
HETATM    9  C           0       6.457  27.497  50.139  0.00  0.00     0.227 A 
HETATM   10 Cl           0       7.872  26.933  49.247  0.00  0.00    -0.041 Cl
ENDROOT
BRANCH   1  11
HETATM   11  N           0       5.022  26.632  53.254  0.00  0.00    -0.361 N 
HETATM   12  C           0       5.246  25.194  53.388  0.00  0.00     0.144 C 
HETATM   13  C           0       6.080  24.886  54.631  0.00  0.00     0.144 C 
HETATM   14  N           0       5.479  25.488  55.819  0.00  0.00    -0.363 N 
HETATM   15  C           0       4.346  26.387  55.608  0.00  0.00     0.144 C 
HETATM   16  C           0       4.628  27.365  54.469  0.00  0.00     0.144 C 
BRANCH  14  17
HETATM   17  C           0       5.984  25.245  57.072  0.00  0.00     0.125 A 
HETATM   18  C           0       7.290  25.667  57.439  0.00  0.00     0.051 A 
HETATM   19  C           0       7.744  25.381  58.713  0.00  0.00     0.021 A 
HETATM   20  C           0       6.917  24.694  59.611  0.00  0.00     0.065 A 
HETATM   21  C           0       5.647  24.332  59.163  0.00  0.00     0.135 A 
HETATM   22  N           0       5.186  24.589  57.941  0.00  0.00    -0.243 NA
BRANCH  20  23
HETATM   23  C           0       7.400  24.322  60.975  0.00  0.00     0.418 C 
HETATM   24  F           0       7.562  25.413  61.762  0.00  0.00    -0.166 F 
HETATM   25  F           0       8.603  23.695  60.944  0.00  0.00    -0.166 F 
HETATM   26  F           0       6.544  23.487  61.607  0.00  0.00    -0.166 F 
ENDBRANCH  20  23
ENDBRANCH  14  17
ENDBRANCH   1  11
BRANCH   5  27
HETATM   27  C           0       3.753  30.561  48.769  0.00  0.00     0.092 C 
HETATM   28  C           0       3.062  29.791  47.626  0.00  0.00     0.026 C 
HETATM   29  C           0       1.562  30.041  47.857  0.00  0.00     0.002 C 
HETATM   30  C           0       1.483  31.501  48.376  0.00  0.00     0.002 C 
HETATM   31  C           0       2.909  31.850  48.900  0.00  0.00     0.026 C 
ENDBRANCH   5  27
TORSDOF 4
ENDMDL
MODEL 23
REMARK VINA RESULT:      -7.8      2.135      2.923
REMARK  4 active torsions:
REMARK  status: ('A' for Active; 'I' for Inactive)
REMARK    1  A    between atoms: C_1  and  N_9 
REMARK    2  A    between atoms: N_5  and  C_6 
REMARK    3  A    between atoms: N_10  and  C_11 
REMARK    4  A    between atoms: C_15  and  C_17 
ROOT
HETATM    1  C           0       6.974  27.023  52.399  0.00  0.00     0.162 A 
HETATM    2  N           0       7.329  26.341  51.285  0.00  0.00    -0.198 NA
HETATM    3  N           0       6.413  27.977  49.784  0.00  0.00    -0.198 NA
HETATM    4  N           0       5.792  29.218  53.094  0.00  0.00    -0.236 NA
HETATM    5  N           0       5.417  29.855  50.957  0.00  0.00    -0.319 N 
HETATM    6  C           0       6.296  28.260  52.227  0.00  0.00     0.150 A 
HETATM    7  C           0       6.065  28.643  50.896  0.00  0.00     0.167 A 
HETATM    8  C           0       5.284  30.133  52.304  0.00  0.00     0.212 A 
HETATM    9  C           0       7.037  26.853  50.097  0.00  0.00     0.227 A 
HETATM   10 Cl           0       7.560  25.876  48.723  0.00  0.00    -0.041 Cl
ENDROOT
BRANCH   1  11
HETATM   11  N           0       7.288  26.478  53.605  0.00  0.00    -0.361 N 
HETATM   12  C           0       7.854  27.293  54.678  0.00  0.00     0.144 C 
HETATM   13  C           0       7.145  27.017  56.003  0.00  0.00     0.144 C 
HETATM   14  N           0       7.148  25.587  56.303  0.00  0.00    -0.363 N 
HETATM   15  C           0       7.638  24.689  55.259  0.00  0.00     0.144 C 
HETATM   16  C           0       7.045  25.056  53.900  0.00  0.00     0.144 C 
BRANCH  14  17
HETATM   17  C           0       6.676  25.111  57.501  0.00  0.00     0.125 A 
HETATM   18  C           0       7.466  25.163  58.681  0.00  0.00     0.051 A 
HETATM   19  C           0       6.938  24.657  59.854  0.00  0.00     0.021 A 
HETATM   20  C           0       5.646  24.114  59.860  0.00  0.00     0.065 A 
HETATM   21  C           0       4.944  24.119  58.655  0.00  0.00     0.135 A 
HETATM   22  N           0       5.430  24.594  57.511  0.00  0.00    -0.243 NA
BRANCH  20  23
HETATM   23  C           0       5.069  23.510  61.099  0.00  0.00     0.418 C 
HETATM   24  F           0       4.399  22.363  60.831  0.00  0.00    -0.166 F 
HETATM   25  F           0       4.182  24.334  61.711  0.00  0.00    -0.166 F 
HETATM   26  F           0       6.023  23.219  62.013  0.00  0.00    -0.166 F 
ENDBRANCH  20  23
ENDBRANCH  14  17
ENDBRANCH   1  11
BRANCH   5  27
HETATM   27  C           0       4.945  30.609  49.782  0.00  0.00     0.092 C 
HETATM   28  C           0       3.892  29.817  48.980  0.00  0.00     0.026 C 
HETATM   29  C           0       2.573  30.086  49.725  0.00  0.00     0.002 C 
HETATM   30  C           0       2.684  31.558  50.201  0.00  0.00     0.002 C 
HETATM   31  C           0       4.203  31.907  50.173  0.00  0.00     0.026 C 
ENDBRANCH   5  27
TORSDOF 4
ENDMDL
MODEL 24
REMARK VINA RESULT:      -7.8      2.256      3.359
REMARK  4 active torsions:
REMARK  status: ('A' for Active; 'I' for Inactive)
REMARK    1  A    between atoms: C_1  and  N_9 
REMARK    2  A    between atoms: N_5  and  C_6 
REMARK    3  A    between atoms: N_10  and  C_11 
REMARK    4  A    between atoms: C_15  and  C_17 
ROOT
HETATM    1  C           0       4.884  27.553  52.383  0.00  0.00     0.162 A 
HETATM    2  N           0       3.719  27.470  51.700  0.00  0.00    -0.198 NA
HETATM    3  N           0       4.125  29.463  50.423  0.00  0.00    -0.198 NA
HETATM    4  N           0       6.981  29.060  52.558  0.00  0.00    -0.236 NA
HETATM    5  N           0       6.251  30.498  50.973  0.00  0.00    -0.319 N 
HETATM    6  C           0       5.743  28.648  52.090  0.00  0.00     0.150 A 
HETATM    7  C           0       5.277  29.536  51.107  0.00  0.00     0.167 A 
HETATM    8  C           0       7.237  30.151  51.877  0.00  0.00     0.212 A 
HETATM    9  C           0       3.434  28.397  50.796  0.00  0.00     0.227 A 
HETATM   10 Cl           0       1.892  28.172  49.966  0.00  0.00    -0.041 Cl
ENDROOT
BRANCH   1  11
HETATM   11  N           0       5.153  26.589  53.302  0.00  0.00    -0.361 N 
HETATM   12  C           0       6.459  25.933  53.351  0.00  0.00     0.144 C 
HETATM   13  C           0       6.981  25.865  54.786  0.00  0.00     0.144 C 
HETATM   14  N           0       5.993  25.246  55.666  0.00  0.00    -0.363 N 
HETATM   15  C           0       4.673  24.977  55.100  0.00  0.00     0.144 C 
HETATM   16  C           0       4.161  26.180  54.311  0.00  0.00     0.144 C 
BRANCH  14  17
HETATM   17  C           0       6.287  24.965  56.977  0.00  0.00     0.125 A 
HETATM   18  C           0       5.334  24.354  57.835  0.00  0.00     0.051 A 
HETATM   19  C           0       5.687  24.108  59.149  0.00  0.00     0.021 A 
HETATM   20  C           0       6.966  24.454  59.604  0.00  0.00     0.065 A 
HETATM   21  C           0       7.837  25.039  58.683  0.00  0.00     0.135 A 
HETATM   22  N           0       7.521  25.292  57.415  0.00  0.00    -0.243 NA
BRANCH  20  23
HETATM   23  C           0       7.358  24.251  61.031  0.00  0.00     0.418 C 
HETATM   24  F           0       6.426  23.539  61.709  0.00  0.00    -0.166 F 
HETATM   25  F           0       7.501  25.423  61.699  0.00  0.00    -0.166 F 
HETATM   26  F           0       8.535  23.594  61.146  0.00  0.00    -0.166 F 
ENDBRANCH  20  23
ENDBRANCH  14  17
ENDBRANCH   1  11
BRANCH   5  27
HETATM   27  C           0       6.157  31.659  50.071  0.00  0.00     0.092 C 
HETATM   28  C           0       5.159  32.712  50.594  0.00  0.00     0.026 C 
HETATM   29  C           0       5.973  33.527  51.614  0.00  0.00     0.002 C 
HETATM   30  C           0       7.400  33.601  51.009  0.00  0.00     0.002 C 
HETATM   31  C           0       7.488  32.439  49.972  0.00  0.00     0.026 C 
ENDBRANCH   5  27
TORSDOF 4
ENDMDL
MODEL 25
REMARK VINA RESULT:      -7.5      1.902      2.603
REMARK  4 active torsions:
REMARK  status: ('A' for Active; 'I' for Inactive)
REMARK    1  A    between atoms: C_1  and  N_9 
REMARK    2  A    between atoms: N_5  and  C_6 
REMARK    3  A    between atoms: N_10  and  C_11 
REMARK    4  A    between atoms: C_15  and  C_17 
ROOT
HETATM    1  C           0       4.154  27.556  52.034  0.00  0.00     0.162 A 
HETATM    2  N           0       2.846  27.209  52.015  0.00  0.00    -0.198 NA
HETATM    3  N           0       2.273  28.793  50.302  0.00  0.00    -0.198 NA
HETATM    4  N           0       5.793  29.190  50.876  0.00  0.00    -0.236 NA
HETATM    5  N           0       4.190  30.080  49.553  0.00  0.00    -0.319 N 
HETATM    6  C           0       4.577  28.582  51.146  0.00  0.00     0.150 A 
HETATM    7  C           0       3.571  29.129  50.332  0.00  0.00     0.167 A 
HETATM    8  C           0       5.517  30.064  49.938  0.00  0.00     0.212 A 
HETATM    9  C           0       2.027  27.828  51.175  0.00  0.00     0.227 A 
HETATM   10 Cl           0       0.351  27.279  51.237  0.00  0.00    -0.041 Cl
ENDROOT
BRANCH   1  11
HETATM   11  N           0       4.972  26.904  52.902  0.00  0.00    -0.361 N 
HETATM   12  C           0       6.286  27.441  53.252  0.00  0.00     0.144 C 
HETATM   13  C           0       6.509  27.394  54.763  0.00  0.00     0.144 C 
HETATM   14  N           0       6.284  26.045  55.277  0.00  0.00    -0.363 N 
HETATM   15  C           0       5.734  25.061  54.345  0.00  0.00     0.144 C 
HETATM   16  C           0       4.566  25.648  53.556  0.00  0.00     0.144 C 
BRANCH  14  17
HETATM   17  C           0       6.543  25.731  56.587  0.00  0.00     0.125 A 
HETATM   18  C           0       7.704  26.216  57.249  0.00  0.00     0.051 A 
HETATM   19  C           0       7.914  25.855  58.566  0.00  0.00     0.021 A 
HETATM   20  C           0       6.988  25.032  59.221  0.00  0.00     0.065 A 
HETATM   21  C           0       5.874  24.617  58.492  0.00  0.00     0.135 A 
HETATM   22  N           0       5.649  24.945  57.222  0.00  0.00    -0.243 NA
BRANCH  20  23
HETATM   23  C           0       7.216  24.580  60.627  0.00  0.00     0.418 C 
HETATM   24  F           0       7.352  25.629  61.473  0.00  0.00    -0.166 F 
HETATM   25  F           0       8.347  23.841  60.754  0.00  0.00    -0.166 F 
HETATM   26  F           0       6.199  23.816  61.085  0.00  0.00    -0.166 F 
ENDBRANCH  20  23
ENDBRANCH  14  17
ENDBRANCH   1  11
BRANCH   5  27
HETATM   27  C           0       3.497  30.937  48.575  0.00  0.00     0.092 C 
HETATM   28  C           0       2.879  30.111  47.429  0.00  0.00     0.026 C 
HETATM   29  C           0       1.538  29.620  47.999  0.00  0.00     0.002 C 
HETATM   30  C           0       1.031  30.794  48.878  0.00  0.00     0.002 C 
HETATM   31  C           0       2.283  31.670  49.189  0.00  0.00     0.026 C 
ENDBRANCH   5  27
TORSDOF 4
ENDMDL
MODEL 26
REMARK VINA RESULT:      -7.4     13.976     17.023
REMARK  4 active torsions:
REMARK  status: ('A' for Active; 'I' for Inactive)
REMARK    1  A    between atoms: C_1  and  N_9 
REMARK    2  A    between atoms: N_5  and  C_6 
REMARK    3  A    between atoms: N_10  and  C_11 
REMARK    4  A    between atoms: C_15  and  C_17 
ROOT
HETATM    1  C           0       9.864  32.973  68.526  0.00  0.00     0.162 A 
HETATM    2  N           0      10.485  32.888  69.727  0.00  0.00    -0.198 NA
HETATM    3  N           0      12.155  31.347  68.948  0.00  0.00    -0.198 NA
HETATM    4  N           0      10.060  32.043  66.119  0.00  0.00    -0.236 NA
HETATM    5  N           0      11.886  30.800  66.598  0.00  0.00    -0.319 N 
HETATM    6  C           0      10.399  32.210  67.453  0.00  0.00     0.150 A 
HETATM    7  C           0      11.532  31.439  67.764  0.00  0.00     0.167 A 
HETATM    8  C           0      10.957  31.205  65.659  0.00  0.00     0.212 A 
HETATM    9  C           0      11.553  32.110  69.846  0.00  0.00     0.227 A 
HETATM   10 Cl           0      12.276  32.092  71.456  0.00  0.00    -0.041 Cl
ENDROOT
BRANCH   1  11
HETATM   11  N           0       8.774  33.779  68.430  0.00  0.00    -0.361 N 
HETATM   12  C           0       8.905  35.186  68.055  0.00  0.00     0.144 C 
HETATM   13  C           0       7.879  35.562  66.986  0.00  0.00     0.144 C 
HETATM   14  N           0       6.529  35.204  67.417  0.00  0.00    -0.363 N 
HETATM   15  C           0       6.408  34.423  68.646  0.00  0.00     0.144 C 
HETATM   16  C           0       7.412  33.272  68.664  0.00  0.00     0.144 C 
BRANCH  14  17
HETATM   17  C           0       5.430  35.557  66.675  0.00  0.00     0.125 A 
HETATM   18  C           0       4.123  35.538  67.231  0.00  0.00     0.051 A 
HETATM   19  C           0       3.056  35.894  66.428  0.00  0.00     0.021 A 
HETATM   20  C           0       3.280  36.269  65.097  0.00  0.00     0.065 A 
HETATM   21  C           0       4.599  36.269  64.645  0.00  0.00     0.135 A 
HETATM   22  N           0       5.644  35.926  65.394  0.00  0.00    -0.243 NA
BRANCH  20  23
HETATM   23  C           0       2.141  36.605  64.189  0.00  0.00     0.418 C 
HETATM   24  F           0       2.469  37.594  63.323  0.00  0.00    -0.166 F 
HETATM   25  F           0       1.051  37.041  64.868  0.00  0.00    -0.166 F 
HETATM   26  F           0       1.743  35.539  63.459  0.00  0.00    -0.166 F 
ENDBRANCH  20  23
ENDBRANCH  14  17
ENDBRANCH   1  11
BRANCH   5  27
HETATM   27  C           0      13.006  29.849  66.476  0.00  0.00     0.092 C 
HETATM   28  C           0      12.661  28.478  67.092  0.00  0.00     0.026 C 
HETATM   29  C           0      11.880  27.753  65.981  0.00  0.00     0.002 C 
HETATM   30  C           0      12.563  28.203  64.663  0.00  0.00     0.002 C 
HETATM   31  C           0      13.336  29.513  65.004  0.00  0.00     0.026 C 
ENDBRANCH   5  27
TORSDOF 4
ENDMDL
MODEL 27
REMARK VINA RESULT:      -7.3     14.007     16.828
REMARK  4 active torsions:
REMARK  status: ('A' for Active; 'I' for Inactive)
REMARK    1  A    between atoms: C_1  and  N_9 
REMARK    2  A    between atoms: N_5  and  C_6 
REMARK    3  A    between atoms: N_10  and  C_11 
REMARK    4  A    between atoms: C_15  and  C_17 
ROOT
HETATM    1  C           0       8.878  31.349  68.681  0.00  0.00     0.162 A 
HETATM    2  N           0       9.028  30.674  69.845  0.00  0.00    -0.198 NA
HETATM    3  N           0      10.831  29.316  69.024  0.00  0.00    -0.198 NA
HETATM    4  N           0       9.897  31.464  66.305  0.00  0.00    -0.236 NA
HETATM    5  N           0      11.405  29.831  66.722  0.00  0.00    -0.319 N 
HETATM    6  C           0       9.743  31.009  67.606  0.00  0.00     0.150 A 
HETATM    7  C           0      10.673  29.991  67.876  0.00  0.00     0.167 A 
HETATM    8  C           0      10.881  30.742  65.825  0.00  0.00     0.212 A 
HETATM    9  C           0       9.965  29.740  69.931  0.00  0.00     0.227 A 
HETATM   10 Cl           0      10.067  28.939  71.501  0.00  0.00    -0.041 Cl
ENDROOT
BRANCH   1  11
HETATM   11  N           0       7.912  32.304  68.620  0.00  0.00    -0.361 N 
HETATM   12  C           0       8.255  33.722  68.524  0.00  0.00     0.144 C 
HETATM   13  C           0       7.426  34.410  67.440  0.00  0.00     0.144 C 
HETATM   14  N           0       5.999  34.176  67.654  0.00  0.00    -0.363 N 
HETATM   15  C           0       5.631  33.225  68.701  0.00  0.00     0.144 C 
HETATM   16  C           0       6.480  31.959  68.614  0.00  0.00     0.144 C 
BRANCH  14  17
HETATM   17  C           0       5.053  34.797  66.878  0.00  0.00     0.125 A 
HETATM   18  C           0       3.700  34.899  67.299  0.00  0.00     0.051 A 
HETATM   19  C           0       2.793  35.527  66.466  0.00  0.00     0.021 A 
HETATM   20  C           0       3.219  36.052  65.240  0.00  0.00     0.065 A 
HETATM   21  C           0       4.570  35.914  64.919  0.00  0.00     0.135 A 
HETATM   22  N           0       5.463  35.310  65.699  0.00  0.00    -0.243 NA
BRANCH  20  23
HETATM   23  C           0       2.252  36.687  64.294  0.00  0.00     0.418 C 
HETATM   24  F           0       1.167  37.175  64.943  0.00  0.00    -0.166 F 
HETATM   25  F           0       1.781  35.811  63.372  0.00  0.00    -0.166 F 
HETATM   26  F           0       2.811  37.710  63.608  0.00  0.00    -0.166 F 
ENDBRANCH  20  23
ENDBRANCH  14  17
ENDBRANCH   1  11
BRANCH   5  27
HETATM   27  C           0      12.473  28.831  66.544  0.00  0.00     0.092 C 
HETATM   28  C           0      12.274  28.005  65.258  0.00  0.00     0.026 C 
HETATM   29  C           0      12.870  28.888  64.148  0.00  0.00     0.002 C 
HETATM   30  C           0      14.092  29.578  64.809  0.00  0.00     0.002 C 
HETATM   31  C           0      13.862  29.480  66.348  0.00  0.00     0.026 C 
ENDBRANCH   5  27
TORSDOF 4
ENDMDL
MODEL 28
REMARK VINA RESULT:     -11.9      0.000      0.000
REMARK  4 active torsions:
REMARK  status: ('A' for Active; 'I' for Inactive)
REMARK    1  A    between atoms: C_1  and  N_9 
REMARK    2  A    between atoms: N_5  and  C_6 
REMARK    3  A    between atoms: N_10  and  C_11 
REMARK    4  A    between atoms: C_15  and  C_17 
ROOT
HETATM    1  C           0       5.704  28.900  52.189  0.00  0.00     0.162 A 
HETATM    2  N           0       6.515  29.982  52.245  0.00  0.00    -0.198 NA
HETATM    3  N           0       5.296  31.198  50.571  0.00  0.00    -0.198 NA
HETATM    4  N           0       3.596  28.060  50.946  0.00  0.00    -0.236 NA
HETATM    5  N           0       3.390  29.953  49.727  0.00  0.00    -0.319 N 
HETATM    6  C           0       4.615  28.939  51.277  0.00  0.00     0.150 A 
HETATM    7  C           0       4.499  30.119  50.523  0.00  0.00     0.167 A 
HETATM    8  C           0       2.905  28.695  50.030  0.00  0.00     0.212 A 
HETATM    9  C           0       6.258  31.021  51.461  0.00  0.00     0.227 A 
HETATM   10 Cl           0       7.381  32.372  51.635  0.00  0.00    -0.041 Cl
ENDROOT
BRANCH   1  11
HETATM   11  N           0       5.988  27.850  53.005  0.00  0.00    -0.361 N 
HETATM   12  C           0       7.368  27.432  53.248  0.00  0.00     0.144 C 
HETATM   13  C           0       7.613  27.205  54.739  0.00  0.00     0.144 C 
HETATM   14  N           0       6.626  26.280  55.291  0.00  0.00    -0.363 N 
HETATM   15  C           0       5.519  25.890  54.419  0.00  0.00     0.144 C 
HETATM   16  C           0       4.929  27.106  53.708  0.00  0.00     0.144 C 
BRANCH  14  17
HETATM   17  C           0       6.720  25.829  56.584  0.00  0.00     0.125 A 
HETATM   18  C           0       5.726  24.984  57.147  0.00  0.00     0.051 A 
HETATM   19  C           0       5.873  24.574  58.459  0.00  0.00     0.021 A 
HETATM   20  C           0       6.988  24.988  59.199  0.00  0.00     0.065 A 
HETATM   21  C           0       7.916  25.806  58.555  0.00  0.00     0.135 A 
HETATM   22  N           0       7.797  26.221  57.296  0.00  0.00    -0.243 NA
BRANCH  20  23
HETATM   23  C           0       7.146  24.606  60.635  0.00  0.00     0.418 C 
HETATM   24  F           0       8.270  23.878  60.838  0.00  0.00    -0.166 F 
HETATM   25  F           0       6.115  23.846  61.083  0.00  0.00    -0.166 F 
HETATM   26  F           0       7.209  25.688  61.444  0.00  0.00    -0.166 F 
ENDBRANCH  20  23
ENDBRANCH  14  17
ENDBRANCH   1  11
BRANCH   5  27
HETATM   27  C           0       2.918  30.938  48.738  0.00  0.00     0.092 C 
HETATM   28  C           0       2.098  30.273  47.614  0.00  0.00     0.026 C 
HETATM   29  C           0       0.684  30.142  48.208  0.00  0.00     0.002 C 
HETATM   30  C           0       0.499  31.420  49.067  0.00  0.00     0.002 C 
HETATM   31  C           0       1.934  31.962  49.348  0.00  0.00     0.026 C 
ENDBRANCH   5  27
TORSDOF 4
ENDMDL
MODEL 29
REMARK VINA RESULT:     -11.7      0.493      1.100
REMARK  4 active torsions:
REMARK  status: ('A' for Active; 'I' for Inactive)
REMARK    1  A    between atoms: C_1  and  N_9 
REMARK    2  A    between atoms: N_5  and  C_6 
REMARK    3  A    between atoms: N_10  and  C_11 
REMARK    4  A    between atoms: C_15  and  C_17 
ROOT
HETATM    1  C           0       5.652  28.851  52.206  0.00  0.00     0.162 A 
HETATM    2  N           0       6.465  29.932  52.263  0.00  0.00    -0.198 NA
HETATM    3  N           0       5.280  31.130  50.551  0.00  0.00    -0.198 NA
HETATM    4  N           0       3.562  28.002  50.937  0.00  0.00    -0.236 NA
HETATM    5  N           0       3.385  29.880  49.690  0.00  0.00    -0.319 N 
HETATM    6  C           0       4.578  28.883  51.275  0.00  0.00     0.150 A 
HETATM    7  C           0       4.480  30.053  50.504  0.00  0.00     0.167 A 
HETATM    8  C           0       2.889  28.628  50.001  0.00  0.00     0.212 A 
HETATM    9  C           0       6.226  30.961  51.461  0.00  0.00     0.227 A 
HETATM   10 Cl           0       7.350  32.311  51.637  0.00  0.00    -0.041 Cl
ENDROOT
BRANCH   1  11
HETATM   11  N           0       5.917  27.811  53.040  0.00  0.00    -0.361 N 
HETATM   12  C           0       7.278  27.302  53.205  0.00  0.00     0.144 C 
HETATM   13  C           0       7.610  27.108  54.684  0.00  0.00     0.144 C 
HETATM   14  N           0       6.601  26.276  55.336  0.00  0.00    -0.363 N 
HETATM   15  C           0       5.412  25.939  54.556  0.00  0.00     0.144 C 
HETATM   16  C           0       4.860  27.170  53.840  0.00  0.00     0.144 C 
BRANCH  14  17
HETATM   17  C           0       6.753  25.862  56.636  0.00  0.00     0.125 A 
HETATM   18  C           0       7.868  26.270  57.417  0.00  0.00     0.051 A 
HETATM   19  C           0       7.969  25.810  58.717  0.00  0.00     0.021 A 
HETATM   20  C           0       6.979  24.965  59.237  0.00  0.00     0.065 A 
HETATM   21  C           0       5.917  24.631  58.397  0.00  0.00     0.135 A 
HETATM   22  N           0       5.798  25.055  57.141  0.00  0.00    -0.243 NA
BRANCH  20  23
HETATM   23  C           0       7.090  24.408  60.619  0.00  0.00     0.418 C 
HETATM   24  F           0       7.196  25.389  61.546  0.00  0.00    -0.166 F 
HETATM   25  F           0       8.184  23.621  60.772  0.00  0.00    -0.166 F 
HETATM   26  F           0       6.018  23.651  60.948  0.00  0.00    -0.166 F 
ENDBRANCH  20  23
ENDBRANCH  14  17
ENDBRANCH   1  11
BRANCH   5  27
HETATM   27  C           0       2.934  30.854  48.680  0.00  0.00     0.092 C 
HETATM   28  C           0       2.064  30.190  47.594  0.00  0.00     0.026 C 
HETATM   29  C           0       0.659  30.135  48.218  0.00  0.00     0.002 C 
HETATM   30  C           0       0.544  31.446  49.040  0.00  0.00     0.002 C 
HETATM   31  C           0       2.005  31.936  49.278  0.00  0.00     0.026 C 
ENDBRANCH   5  27
TORSDOF 4
ENDMDL
MODEL 30
REMARK VINA RESULT:      -8.9      5.855     10.241
REMARK  4 active torsions:
REMARK  status: ('A' for Active; 'I' for Inactive)
REMARK    1  A    between atoms: C_1  and  N_9 
REMARK    2  A    between atoms: N_5  and  C_6 
REMARK    3  A    between atoms: N_10  and  C_11 
REMARK    4  A    between atoms: C_15  and  C_17 
ROOT
HETATM    1  C           0       5.476  28.222  51.182  0.00  0.00     0.162 A 
HETATM    2  N           0       6.157  27.495  50.265  0.00  0.00    -0.198 NA
HETATM    3  N           0       6.862  25.834  51.849  0.00  0.00    -0.198 NA
HETATM    4  N           0       4.901  28.198  53.705  0.00  0.00    -0.236 NA
HETATM    5  N           0       6.042  26.284  54.089  0.00  0.00    -0.319 N 
HETATM    6  C           0       5.470  27.750  52.523  0.00  0.00     0.150 A 
HETATM    7  C           0       6.185  26.562  52.750  0.00  0.00     0.167 A 
HETATM    8  C           0       5.266  27.308  54.597  0.00  0.00     0.212 A 
HETATM    9  C           0       6.776  26.388  50.651  0.00  0.00     0.227 A 
HETATM   10 Cl           0       7.619  25.526  49.361  0.00  0.00    -0.041 Cl
ENDROOT
BRANCH   1  11
HETATM   11  N           0       4.847  29.350  50.760  0.00  0.00    -0.361 N 
HETATM   12  C           0       4.533  29.558  49.347  0.00  0.00     0.144 C 
HETATM   13  C           0       3.094  30.042  49.175  0.00  0.00     0.144 C 
HETATM   14  N           0       2.843  31.222  50.000  0.00  0.00    -0.363 N 
HETATM   15  C           0       3.893  31.613  50.939  0.00  0.00     0.144 C 
HETATM   16  C           0       4.423  30.400  51.701  0.00  0.00     0.144 C 
BRANCH  14  17
HETATM   17  C           0       1.657  31.908  49.917  0.00  0.00     0.125 A 
HETATM   18  C           0       0.878  31.899  48.729  0.00  0.00     0.051 A 
HETATM   19  C           0      -0.301  32.620  48.706  0.00  0.00     0.021 A 
HETATM   20  C           0      -0.707  33.331  49.843  0.00  0.00     0.065 A 
HETATM   21  C           0       0.118  33.268  50.966  0.00  0.00     0.135 A 
HETATM   22  N           0       1.261  32.587  51.014  0.00  0.00    -0.243 NA
BRANCH  20  23
HETATM   23  C           0      -1.948  34.162  49.830  0.00  0.00     0.418 C 
HETATM   24  F           0      -2.868  33.701  50.712  0.00  0.00    -0.166 F 
HETATM   25  F           0      -2.554  34.167  48.617  0.00  0.00    -0.166 F 
HETATM   26  F           0      -1.697  35.454  50.143  0.00  0.00    -0.166 F 
ENDBRANCH  20  23
ENDBRANCH  14  17
ENDBRANCH   1  11
BRANCH   5  27
HETATM   27  C           0       6.667  25.139  54.775  0.00  0.00     0.092 C 
HETATM   28  C           0       8.055  25.500  55.341  0.00  0.00     0.026 C 
HETATM   29  C           0       7.747  26.180  56.686  0.00  0.00     0.002 C 
HETATM   30  C           0       6.522  25.409  57.244  0.00  0.00     0.002 C 
HETATM   31  C           0       5.872  24.691  56.022  0.00  0.00     0.026 C 
ENDBRANCH   5  27
TORSDOF 4
ENDMDL
MODEL 31
REMARK VINA RESULT:      -8.3      4.774      7.656
REMARK  4 active torsions:
REMARK  status: ('A' for Active; 'I' for Inactive)
REMARK    1  A    between atoms: C_1  and  N_9 
REMARK    2  A    between atoms: N_5  and  C_6 
REMARK    3  A    between atoms: N_10  and  C_11 
REMARK    4  A    between atoms: C_15  and  C_17 
ROOT
HETATM    1  C           0       0.071  31.771  48.392  0.00  0.00     0.162 A 
HETATM    2  N           0      -0.741  31.552  47.331  0.00  0.00    -0.198 NA
HETATM    3  N           0      -2.165  33.425  47.815  0.00  0.00    -0.198 NA
HETATM    4  N           0       0.352  33.412  50.373  0.00  0.00    -0.236 NA
HETATM    5  N           0      -1.453  34.643  49.791  0.00  0.00    -0.319 N 
HETATM    6  C           0      -0.228  32.877  49.233  0.00  0.00     0.150 A 
HETATM    7  C           0      -1.353  33.632  48.863  0.00  0.00     0.167 A 
HETATM    8  C           0      -0.402  34.444  50.666  0.00  0.00     0.212 A 
HETATM    9  C           0      -1.764  32.371  47.123  0.00  0.00     0.227 A 
HETATM   10 Cl           0      -2.740  31.985  45.704  0.00  0.00    -0.041 Cl
ENDROOT
BRANCH   1  11
HETATM   11  N           0       1.114  30.920  48.581  0.00  0.00    -0.361 N 
HETATM   12  C           0       2.487  31.330  48.291  0.00  0.00     0.144 C 
HETATM   13  C           0       3.425  30.941  49.434  0.00  0.00     0.144 C 
HETATM   14  N           0       3.302  29.518  49.741  0.00  0.00    -0.363 N 
HETATM   15  C           0       2.232  28.782  49.069  0.00  0.00     0.144 C 
HETATM   16  C           0       0.920  29.562  49.115  0.00  0.00     0.144 C 
BRANCH  14  17
HETATM   17  C           0       4.134  28.913  50.649  0.00  0.00     0.125 A 
HETATM   18  C           0       4.727  29.645  51.713  0.00  0.00     0.051 A 
HETATM   19  C           0       5.565  28.980  52.588  0.00  0.00     0.021 A 
HETATM   20  C           0       5.807  27.610  52.417  0.00  0.00     0.065 A 
HETATM   21  C           0       5.170  26.976  51.351  0.00  0.00     0.135 A 
HETATM   22  N           0       4.363  27.592  50.490  0.00  0.00    -0.243 NA
BRANCH  20  23
HETATM   23  C           0       6.752  26.876  53.313  0.00  0.00     0.418 C 
HETATM   24  F           0       7.465  25.947  52.633  0.00  0.00    -0.166 F 
HETATM   25  F           0       6.110  26.211  54.306  0.00  0.00    -0.166 F 
HETATM   26  F           0       7.634  27.709  53.911  0.00  0.00    -0.166 F 
ENDBRANCH  20  23
ENDBRANCH  14  17
ENDBRANCH   1  11
BRANCH   5  27
HETATM   27  C           0      -2.524  35.655  49.809  0.00  0.00     0.092 C 
HETATM   28  C           0      -2.172  36.843  50.728  0.00  0.00     0.026 C 
HETATM   29  C           0      -1.287  37.747  49.852  0.00  0.00     0.002 C 
HETATM   30  C           0      -1.891  37.626  48.428  0.00  0.00     0.002 C 
HETATM   31  C           0      -2.735  36.316  48.427  0.00  0.00     0.026 C 
ENDBRANCH   5  27
TORSDOF 4
ENDMDL
MODEL 32
REMARK VINA RESULT:      -7.9      2.119      2.832
REMARK  4 active torsions:
REMARK  status: ('A' for Active; 'I' for Inactive)
REMARK    1  A    between atoms: C_1  and  N_9 
REMARK    2  A    between atoms: N_5  and  C_6 
REMARK    3  A    between atoms: N_10  and  C_11 
REMARK    4  A    between atoms: C_15  and  C_17 
ROOT
HETATM    1  C           0       6.950  27.059  52.378  0.00  0.00     0.162 A 
HETATM    2  N           0       7.328  26.385  51.267  0.00  0.00    -0.198 NA
HETATM    3  N           0       6.385  27.999  49.758  0.00  0.00    -0.198 NA
HETATM    4  N           0       5.715  29.228  53.062  0.00  0.00    -0.236 NA
HETATM    5  N           0       5.339  29.855  50.922  0.00  0.00    -0.319 N 
HETATM    6  C           0       6.245  28.280  52.200  0.00  0.00     0.150 A 
HETATM    7  C           0       6.015  28.657  50.867  0.00  0.00     0.167 A 
HETATM    8  C           0       5.191  30.130  52.268  0.00  0.00     0.212 A 
HETATM    9  C           0       7.032  26.889  50.076  0.00  0.00     0.227 A 
HETATM   10 Cl           0       7.586  25.923  48.707  0.00  0.00    -0.041 Cl
ENDROOT
BRANCH   1  11
HETATM   11  N           0       7.269  26.523  53.586  0.00  0.00    -0.361 N 
HETATM   12  C           0       7.825  27.348  54.657  0.00  0.00     0.144 C 
HETATM   13  C           0       7.117  27.070  55.982  0.00  0.00     0.144 C 
HETATM   14  N           0       7.135  25.641  56.288  0.00  0.00    -0.363 N 
HETATM   15  C           0       7.635  24.744  55.248  0.00  0.00     0.144 C 
HETATM   16  C           0       7.040  25.100  53.887  0.00  0.00     0.144 C 
BRANCH  14  17
HETATM   17  C           0       6.667  25.165  57.487  0.00  0.00     0.125 A 
HETATM   18  C           0       7.435  25.272  58.677  0.00  0.00     0.051 A 
HETATM   19  C           0       6.912  24.763  59.851  0.00  0.00     0.021 A 
HETATM   20  C           0       5.646  24.164  59.849  0.00  0.00     0.065 A 
HETATM   21  C           0       4.962  24.118  58.634  0.00  0.00     0.135 A 
HETATM   22  N           0       5.444  24.595  57.488  0.00  0.00    -0.243 NA
BRANCH  20  23
HETATM   23  C           0       5.078  23.556  61.090  0.00  0.00     0.418 C 
HETATM   24  F           0       6.045  23.271  61.994  0.00  0.00    -0.166 F 
HETATM   25  F           0       4.432  22.389  60.844  0.00  0.00    -0.166 F 
HETATM   26  F           0       4.185  24.374  61.693  0.00  0.00    -0.166 F 
ENDBRANCH  20  23
ENDBRANCH  14  17
ENDBRANCH   1  11
BRANCH   5  27
HETATM   27  C           0       4.858  30.596  49.744  0.00  0.00     0.092 C 
HETATM   28  C           0       3.843  29.773  48.926  0.00  0.00     0.026 C 
HETATM   29  C           0       2.505  29.996  49.654  0.00  0.00     0.002 C 
HETATM   30  C           0       2.561  31.469  50.135  0.00  0.00     0.002 C 
HETATM   31  C           0       4.068  31.868  50.129  0.00  0.00     0.026 C 
ENDBRANCH   5  27
TORSDOF 4
ENDMDL
MODEL 33
REMARK VINA RESULT:      -7.8      2.249      3.359
REMARK  4 active torsions:
REMARK  status: ('A' for Active; 'I' for Inactive)
REMARK    1  A    between atoms: C_1  and  N_9 
REMARK    2  A    between atoms: N_5  and  C_6 
REMARK    3  A    between atoms: N_10  and  C_11 
REMARK    4  A    between atoms: C_15  and  C_17 
ROOT
HETATM    1  C           0       4.909  27.527  52.353  0.00  0.00     0.162 A 
HETATM    2  N           0       3.751  27.435  51.659  0.00  0.00    -0.198 NA
HETATM    3  N           0       4.153  29.431  50.386  0.00  0.00    -0.198 NA
HETATM    4  N           0       6.993  29.050  52.546  0.00  0.00    -0.236 NA
HETATM    5  N           0       6.265  30.483  50.956  0.00  0.00    -0.319 N 
HETATM    6  C           0       5.762  28.628  52.068  0.00  0.00     0.150 A 
HETATM    7  C           0       5.298  29.513  51.080  0.00  0.00     0.167 A 
HETATM    8  C           0       7.246  30.143  51.868  0.00  0.00     0.212 A 
HETATM    9  C           0       3.467  28.360  50.752  0.00  0.00     0.227 A 
HETATM   10 Cl           0       1.934  28.123  49.909  0.00  0.00    -0.041 Cl
ENDROOT
BRANCH   1  11
HETATM   11  N           0       5.177  26.564  53.274  0.00  0.00    -0.361 N 
HETATM   12  C           0       6.486  25.915  53.330  0.00  0.00     0.144 C 
HETATM   13  C           0       7.000  25.850  54.768  0.00  0.00     0.144 C 
HETATM   14  N           0       6.010  25.226  55.643  0.00  0.00    -0.363 N 
HETATM   15  C           0       4.694  24.951  55.069  0.00  0.00     0.144 C 
HETATM   16  C           0       4.181  26.151  54.276  0.00  0.00     0.144 C 
BRANCH  14  17
HETATM   17  C           0       6.297  24.948  56.956  0.00  0.00     0.125 A 
HETATM   18  C           0       5.329  24.368  57.819  0.00  0.00     0.051 A 
HETATM   19  C           0       5.677  24.123  59.134  0.00  0.00     0.021 A 
HETATM   20  C           0       6.965  24.439  59.586  0.00  0.00     0.065 A 
HETATM   21  C           0       7.850  24.993  58.660  0.00  0.00     0.135 A 
HETATM   22  N           0       7.540  25.245  57.391  0.00  0.00    -0.243 NA
BRANCH  20  23
HETATM   23  C           0       7.353  24.236  61.015  0.00  0.00     0.418 C 
HETATM   24  F           0       6.426  23.512  61.686  0.00  0.00    -0.166 F 
HETATM   25  F           0       7.479  25.408  61.687  0.00  0.00    -0.166 F 
HETATM   26  F           0       8.537  23.592  61.132  0.00  0.00    -0.166 F 
ENDBRANCH  20  23
ENDBRANCH  14  17
ENDBRANCH   1  11
BRANCH   5  27
HETATM   27  C           0       6.171  31.643  50.053  0.00  0.00     0.092 C 
HETATM   28  C           0       5.177  32.698  50.579  0.00  0.00     0.026 C 
HETATM   29  C           0       5.997  33.513  51.595  0.00  0.00     0.002 C 
HETATM   30  C           0       7.422  33.582  50.984  0.00  0.00     0.002 C 
HETATM   31  C           0       7.504  32.420  49.949  0.00  0.00     0.026 C 
ENDBRANCH   5  27
TORSDOF 4
ENDMDL
MODEL 34
REMARK VINA RESULT:      -7.8      6.394     10.860
REMARK  4 active torsions:
REMARK  status: ('A' for Active; 'I' for Inactive)
REMARK    1  A    between atoms: C_1  and  N_9 
REMARK    2  A    between atoms: N_5  and  C_6 
REMARK    3  A    between atoms: N_10  and  C_11 
REMARK    4  A    between atoms: C_15  and  C_17 
ROOT
HETATM    1  C           0       4.706  28.012  51.639  0.00  0.00     0.162 A 
HETATM    2  N           0       5.441  27.606  50.578  0.00  0.00    -0.198 NA
HETATM    3  N           0       6.927  26.261  51.901  0.00  0.00    -0.198 NA
HETATM    4  N           0       4.589  27.710  54.207  0.00  0.00    -0.236 NA
HETATM    5  N           0       6.372  26.321  54.264  0.00  0.00    -0.319 N 
HETATM    6  C           0       5.081  27.531  52.923  0.00  0.00     0.150 A 
HETATM    7  C           0       6.192  26.672  52.946  0.00  0.00     0.167 A 
HETATM    8  C           0       5.380  26.984  54.960  0.00  0.00     0.212 A 
HETATM    9  C           0       6.462  26.783  50.778  0.00  0.00     0.227 A 
HETATM   10 Cl           0       7.334  26.319  49.315  0.00  0.00    -0.041 Cl
ENDROOT
BRANCH   1  11
HETATM   11  N           0       3.663  28.853  51.406  0.00  0.00    -0.361 N 
HETATM   12  C           0       3.872  30.292  51.252  0.00  0.00     0.144 C 
HETATM   13  C           0       3.111  30.825  50.038  0.00  0.00     0.144 C 
HETATM   14  N           0       1.699  30.452  50.109  0.00  0.00    -0.363 N 
HETATM   15  C           0       1.308  29.528  51.172  0.00  0.00     0.144 C 
HETATM   16  C           0       2.284  28.357  51.266  0.00  0.00     0.144 C 
BRANCH  14  17
HETATM   17  C           0       0.793  30.923  49.193  0.00  0.00     0.125 A 
HETATM   18  C           0       0.216  32.215  49.319  0.00  0.00     0.051 A 
HETATM   19  C           0      -0.699  32.627  48.369  0.00  0.00     0.021 A 
HETATM   20  C           0      -1.032  31.777  47.306  0.00  0.00     0.065 A 
HETATM   21  C           0      -0.403  30.533  47.260  0.00  0.00     0.135 A 
HETATM   22  N           0       0.477  30.109  48.165  0.00  0.00    -0.243 NA
BRANCH  20  23
HETATM   23  C           0      -2.059  32.172  46.295  0.00  0.00     0.418 C 
HETATM   24  F           0      -1.487  32.631  45.156  0.00  0.00    -0.166 F 
HETATM   25  F           0      -2.868  33.166  46.741  0.00  0.00    -0.166 F 
HETATM   26  F           0      -2.864  31.138  45.958  0.00  0.00    -0.166 F 
ENDBRANCH  20  23
ENDBRANCH  14  17
ENDBRANCH   1  11
BRANCH   5  27
HETATM   27  C           0       7.460  25.457  54.756  0.00  0.00     0.092 C 
HETATM   28  C           0       8.467  26.241  55.620  0.00  0.00     0.026 C 
HETATM   29  C           0       7.819  26.276  57.015  0.00  0.00     0.002 C 
HETATM   30  C           0       7.118  24.899  57.157  0.00  0.00     0.002 C 
HETATM   31  C           0       6.950  24.350  55.707  0.00  0.00     0.026 C 
ENDBRANCH   5  27
TORSDOF 4
ENDMDL
MODEL 35
REMARK VINA RESULT:      -7.5      1.909      2.589
REMARK  4 active torsions:
REMARK  status: ('A' for Active; 'I' for Inactive)
REMARK    1  A    between atoms: C_1  and  N_9 
REMARK    2  A    between atoms: N_5  and  C_6 
REMARK    3  A    between atoms: N_10  and  C_11 
REMARK    4  A    between atoms: C_15  and  C_17 
ROOT
HETATM    1  C           0       4.227  27.531  52.024  0.00  0.00     0.162 A 
HETATM    2  N           0       2.908  27.230  52.044  0.00  0.00    -0.198 NA
HETATM    3  N           0       2.354  28.765  50.281  0.00  0.00    -0.198 NA
HETATM    4  N           0       5.898  29.057  50.768  0.00  0.00    -0.236 NA
HETATM    5  N           0       4.299  29.952  49.443  0.00  0.00    -0.319 N 
HETATM    6  C           0       4.667  28.504  51.086  0.00  0.00     0.150 A 
HETATM    7  C           0       3.664  29.055  50.271  0.00  0.00     0.167 A 
HETATM    8  C           0       5.633  29.903  49.802  0.00  0.00     0.212 A 
HETATM    9  C           0       2.094  27.845  51.196  0.00  0.00     0.227 A 
HETATM   10 Cl           0       0.401  27.360  51.314  0.00  0.00    -0.041 Cl
ENDROOT
BRANCH   1  11
HETATM   11  N           0       5.040  26.884  52.901  0.00  0.00    -0.361 N 
HETATM   12  C           0       6.343  27.435  53.272  0.00  0.00     0.144 C 
HETATM   13  C           0       6.544  27.384  54.786  0.00  0.00     0.144 C 
HETATM   14  N           0       6.327  26.030  55.291  0.00  0.00    -0.363 N 
HETATM   15  C           0       5.803  25.044  54.347  0.00  0.00     0.144 C 
HETATM   16  C           0       4.640  25.621  53.543  0.00  0.00     0.144 C 
BRANCH  14  17
HETATM   17  C           0       6.571  25.713  56.604  0.00  0.00     0.125 A 
HETATM   18  C           0       7.711  26.215  57.287  0.00  0.00     0.051 A 
HETATM   19  C           0       7.907  25.849  58.605  0.00  0.00     0.021 A 
HETATM   20  C           0       6.985  25.007  59.240  0.00  0.00     0.065 A 
HETATM   21  C           0       5.890  24.576  58.491  0.00  0.00     0.135 A 
HETATM   22  N           0       5.680  24.908  57.219  0.00  0.00    -0.243 NA
BRANCH  20  23
HETATM   23  C           0       7.198  24.551  60.647  0.00  0.00     0.418 C 
HETATM   24  F           0       7.267  25.596  61.506  0.00  0.00    -0.166 F 
HETATM   25  F           0       8.357  23.860  60.796  0.00  0.00    -0.166 F 
HETATM   26  F           0       6.205  23.738  61.073  0.00  0.00    -0.166 F 
ENDBRANCH  20  23
ENDBRANCH  14  17
ENDBRANCH   1  11
BRANCH   5  27
HETATM   27  C           0       3.616  30.794  48.445  0.00  0.00     0.092 C 
HETATM   28  C           0       2.880  29.945  47.388  0.00  0.00     0.026 C 
HETATM   29  C           0       1.541  29.591  48.057  0.00  0.00     0.002 C 
HETATM   30  C           0       1.166  30.853  48.878  0.00  0.00     0.002 C 
HETATM   31  C           0       2.491  31.652  49.068  0.00  0.00     0.026 C 
ENDBRANCH   5  27
TORSDOF 4
ENDMDL
MODEL 36
REMARK VINA RESULT:      -7.4     13.956     17.010
REMARK  4 active torsions:
REMARK  status: ('A' for Active; 'I' for Inactive)
REMARK    1  A    between atoms: C_1  and  N_9 
REMARK    2  A    between atoms: N_5  and  C_6 
REMARK    3  A    between atoms: N_10  and  C_11 
REMARK    4  A    between atoms: C_15  and  C_17 
ROOT
HETATM    1  C           0       9.839  33.076  68.517  0.00  0.00     0.162 A 
HETATM    2  N           0      10.516  33.075  69.689  0.00  0.00    -0.198 NA
HETATM    3  N           0      12.181  31.522  68.924  0.00  0.00    -0.198 NA
HETATM    4  N           0       9.941  32.006  66.163  0.00  0.00    -0.236 NA
HETATM    5  N           0      11.814  30.828  66.627  0.00  0.00    -0.319 N 
HETATM    6  C           0      10.339  32.260  67.466  0.00  0.00     0.150 A 
HETATM    7  C           0      11.501  31.530  67.768  0.00  0.00     0.167 A 
HETATM    8  C           0      10.834  31.159  65.711  0.00  0.00     0.212 A 
HETATM    9  C           0      11.605  32.326  69.803  0.00  0.00     0.227 A 
HETATM   10 Cl           0      12.403  32.419  71.375  0.00  0.00    -0.041 Cl
ENDROOT
BRANCH   1  11
HETATM   11  N           0       8.728  33.854  68.425  0.00  0.00    -0.361 N 
HETATM   12  C           0       8.826  35.276  68.101  0.00  0.00     0.144 C 
HETATM   13  C           0       7.811  35.661  67.025  0.00  0.00     0.144 C 
HETATM   14  N           0       6.464  35.250  67.414  0.00  0.00    -0.363 N 
HETATM   15  C           0       6.341  34.424  68.614  0.00  0.00     0.144 C 
HETATM   16  C           0       7.376  33.302  68.613  0.00  0.00     0.144 C 
BRANCH  14  17
HETATM   17  C           0       5.370  35.598  66.662  0.00  0.00     0.125 A 
HETATM   18  C           0       4.057  35.562  67.202  0.00  0.00     0.051 A 
HETATM   19  C           0       2.996  35.913  66.389  0.00  0.00     0.021 A 
HETATM   20  C           0       3.232  36.301  65.064  0.00  0.00     0.065 A 
HETATM   21  C           0       4.556  36.317  64.627  0.00  0.00     0.135 A 
HETATM   22  N           0       5.596  35.979  65.387  0.00  0.00    -0.243 NA
BRANCH  20  23
HETATM   23  C           0       2.101  36.633  64.145  0.00  0.00     0.418 C 
HETATM   24  F           0       1.743  35.568  63.388  0.00  0.00    -0.166 F 
HETATM   25  F           0       2.415  37.627  63.277  0.00  0.00    -0.166 F 
HETATM   26  F           0       1.002  37.040  64.819  0.00  0.00    -0.166 F 
ENDBRANCH  20  23
ENDBRANCH  14  17
ENDBRANCH   1  11
BRANCH   5  27
HETATM   27  C           0      12.947  29.893  66.507  0.00  0.00     0.092 C 
HETATM   28  C           0      12.595  28.496  67.056  0.00  0.00     0.026 C 
HETATM   29  C           0      11.861  27.809  65.891  0.00  0.00     0.002 C 
HETATM   30  C           0      12.587  28.317  64.617  0.00  0.00     0.002 C 
HETATM   31  C           0      13.334  29.619  65.036  0.00  0.00     0.026 C 
ENDBRANCH   5  27
TORSDOF 4
ENDMDL
MODEL 37
REMARK VINA RESULT:     -11.9      0.000      0.000
REMARK  4 active torsions:
REMARK  status: ('A' for Active; 'I' for Inactive)
REMARK    1  A    between atoms: C_1  and  N_9 
REMARK    2  A    between atoms: N_5  and  C_6 
REMARK    3  A    between atoms: N_10  and  C_11 
REMARK    4  A    between atoms: C_15  and  C_17 
ROOT
HETATM    1  C           0       5.704  28.892  52.194  0.00  0.00     0.162 A 
HETATM    2  N           0       6.513  29.976  52.256  0.00  0.00    -0.198 NA
HETATM    3  N           0       5.299  31.191  50.576  0.00  0.00    -0.198 NA
HETATM    4  N           0       3.603  28.049  50.940  0.00  0.00    -0.236 NA
HETATM    5  N           0       3.400  29.942  49.721  0.00  0.00    -0.319 N 
HETATM    6  C           0       4.619  28.930  51.277  0.00  0.00     0.150 A 
HETATM    7  C           0       4.505  30.110  50.524  0.00  0.00     0.167 A 
HETATM    8  C           0       2.915  28.684  50.022  0.00  0.00     0.212 A 
HETATM    9  C           0       6.258  31.014  51.471  0.00  0.00     0.227 A 
HETATM   10 Cl           0       7.376  32.368  51.652  0.00  0.00    -0.041 Cl
ENDROOT
BRANCH   1  11
HETATM   11  N           0       5.985  27.842  53.011  0.00  0.00    -0.361 N 
HETATM   12  C           0       7.364  27.422  53.254  0.00  0.00     0.144 C 
HETATM   13  C           0       7.609  27.195  54.746  0.00  0.00     0.144 C 
HETATM   14  N           0       6.620  26.271  55.297  0.00  0.00    -0.363 N 
HETATM   15  C           0       5.513  25.883  54.425  0.00  0.00     0.144 C 
HETATM   16  C           0       4.925  27.099  53.713  0.00  0.00     0.144 C 
BRANCH  14  17
HETATM   17  C           0       6.712  25.821  56.590  0.00  0.00     0.125 A 
HETATM   18  C           0       5.719  24.974  57.152  0.00  0.00     0.051 A 
HETATM   19  C           0       5.864  24.565  58.465  0.00  0.00     0.021 A 
HETATM   20  C           0       6.978  24.980  59.206  0.00  0.00     0.065 A 
HETATM   21  C           0       7.905  25.801  58.564  0.00  0.00     0.135 A 
HETATM   22  N           0       7.788  26.215  57.304  0.00  0.00    -0.243 NA
BRANCH  20  23
HETATM   23  C           0       7.134  24.599  60.643  0.00  0.00     0.418 C 
HETATM   24  F           0       8.252  23.861  60.845  0.00  0.00    -0.166 F 
HETATM   25  F           0       6.097  23.848  61.093  0.00  0.00    -0.166 F 
HETATM   26  F           0       7.208  25.681  61.450  0.00  0.00    -0.166 F 
ENDBRANCH  20  23
ENDBRANCH  14  17
ENDBRANCH   1  11
BRANCH   5  27
HETATM   27  C           0       2.931  30.928  48.731  0.00  0.00     0.092 C 
HETATM   28  C           0       2.127  30.260  47.597  0.00  0.00     0.026 C 
HETATM   29  C           0       0.709  30.117  48.176  0.00  0.00     0.002 C 
HETATM   30  C           0       0.506  31.391  49.037  0.00  0.00     0.002 C 
HETATM   31  C           0       1.933  31.942  49.335  0.00  0.00     0.026 C 
ENDBRANCH   5  27
TORSDOF 4
ENDMDL
MODEL 38
REMARK VINA RESULT:      -9.0      5.856     10.244
REMARK  4 active torsions:
REMARK  status: ('A' for Active; 'I' for Inactive)
REMARK    1  A    between atoms: C_1  and  N_9 
REMARK    2  A    between atoms: N_5  and  C_6 
REMARK    3  A    between atoms: N_10  and  C_11 
REMARK    4  A    between atoms: C_15  and  C_17 
ROOT
HETATM    1  C           0       5.476  28.233  51.189  0.00  0.00     0.162 A 
HETATM    2  N           0       6.151  27.504  50.269  0.00  0.00    -0.198 NA
HETATM    3  N           0       6.863  25.844  51.852  0.00  0.00    -0.198 NA
HETATM    4  N           0       4.915  28.213  53.715  0.00  0.00    -0.236 NA
HETATM    5  N           0       6.055  26.298  54.096  0.00  0.00    -0.319 N 
HETATM    6  C           0       5.477  27.763  52.531  0.00  0.00     0.150 A 
HETATM    7  C           0       6.191  26.575  52.755  0.00  0.00     0.167 A 
HETATM    8  C           0       5.283  27.324  54.606  0.00  0.00     0.212 A 
HETATM    9  C           0       6.771  26.397  50.653  0.00  0.00     0.227 A 
HETATM   10 Cl           0       7.606  25.531  49.360  0.00  0.00    -0.041 Cl
ENDROOT
BRANCH   1  11
HETATM   11  N           0       4.847  29.362  50.769  0.00  0.00    -0.361 N 
HETATM   12  C           0       4.532  29.571  49.356  0.00  0.00     0.144 C 
HETATM   13  C           0       3.093  30.055  49.185  0.00  0.00     0.144 C 
HETATM   14  N           0       2.842  31.234  50.011  0.00  0.00    -0.363 N 
HETATM   15  C           0       3.892  31.623  50.951  0.00  0.00     0.144 C 
HETATM   16  C           0       4.422  30.410  51.712  0.00  0.00     0.144 C 
BRANCH  14  17
HETATM   17  C           0       1.655  31.918  49.930  0.00  0.00     0.125 A 
HETATM   18  C           0       0.886  31.928  48.735  0.00  0.00     0.051 A 
HETATM   19  C           0      -0.294  32.647  48.714  0.00  0.00     0.021 A 
HETATM   20  C           0      -0.711  33.339  49.859  0.00  0.00     0.065 A 
HETATM   21  C           0       0.105  33.259  50.987  0.00  0.00     0.135 A 
HETATM   22  N           0       1.249  32.580  51.034  0.00  0.00    -0.243 NA
BRANCH  20  23
HETATM   23  C           0      -1.953  34.169  49.849  0.00  0.00     0.418 C 
HETATM   24  F           0      -1.692  35.463  50.152  0.00  0.00    -0.166 F 
HETATM   25  F           0      -2.866  33.742  50.758  0.00  0.00    -0.166 F 
HETATM   26  F           0      -2.567  34.149  48.644  0.00  0.00    -0.166 F 
ENDBRANCH  20  23
ENDBRANCH  14  17
ENDBRANCH   1  11
BRANCH   5  27
HETATM   27  C           0       6.683  25.153  54.779  0.00  0.00     0.092 C 
HETATM   28  C           0       8.061  25.522  55.364  0.00  0.00     0.026 C 
HETATM   29  C           0       7.732  26.189  56.711  0.00  0.00     0.002 C 
HETATM   30  C           0       6.507  25.403  57.249  0.00  0.00     0.002 C 
HETATM   31  C           0       5.877  24.689  56.014  0.00  0.00     0.026 C 
ENDBRANCH   5  27
TORSDOF 4
ENDMDL
MODEL 39
REMARK VINA RESULT:      -8.0      1.845      2.201
REMARK  4 active torsions:
REMARK  status: ('A' for Active; 'I' for Inactive)
REMARK    1  A    between atoms: C_1  and  N_9 
REMARK    2  A    between atoms: N_5  and  C_6 
REMARK    3  A    between atoms: N_10  and  C_11 
REMARK    4  A    between atoms: C_15  and  C_17 
ROOT
HETATM    1  C           0       5.180  27.270  52.082  0.00  0.00     0.162 A 
HETATM    2  N           0       6.267  26.926  51.352  0.00  0.00    -0.198 NA
HETATM    3  N           0       5.744  28.424  49.549  0.00  0.00    -0.198 NA
HETATM    4  N           0       3.131  28.847  51.972  0.00  0.00    -0.236 NA
HETATM    5  N           0       3.707  29.681  49.951  0.00  0.00    -0.319 N 
HETATM    6  C           0       4.304  28.248  51.538  0.00  0.00     0.150 A 
HETATM    7  C           0       4.670  28.756  50.281  0.00  0.00     0.167 A 
HETATM    8  C           0       2.816  29.678  51.007  0.00  0.00     0.212 A 
HETATM    9  C           0       6.467  27.511  50.179  0.00  0.00     0.227 A 
HETATM   10 Cl           0       7.921  26.984  49.329  0.00  0.00    -0.041 Cl
ENDROOT
BRANCH   1  11
HETATM   11  N           0       5.001  26.658  53.282  0.00  0.00    -0.361 N 
HETATM   12  C           0       5.174  25.213  53.428  0.00  0.00     0.144 C 
HETATM   13  C           0       6.020  24.887  54.658  0.00  0.00     0.144 C 
HETATM   14  N           0       5.464  25.523  55.851  0.00  0.00    -0.363 N 
HETATM   15  C           0       4.361  26.461  55.651  0.00  0.00     0.144 C 
HETATM   16  C           0       4.657  27.416  54.497  0.00  0.00     0.144 C 
BRANCH  14  17
HETATM   17  C           0       5.983  25.274  57.096  0.00  0.00     0.125 A 
HETATM   18  C           0       7.246  25.792  57.490  0.00  0.00     0.051 A 
HETATM   19  C           0       7.719  25.495  58.754  0.00  0.00     0.021 A 
HETATM   20  C           0       6.951  24.704  59.618  0.00  0.00     0.065 A 
HETATM   21  C           0       5.718  24.252  59.147  0.00  0.00     0.135 A 
HETATM   22  N           0       5.241  24.518  57.933  0.00  0.00    -0.243 NA
BRANCH  20  23
HETATM   23  C           0       7.459  24.320  60.970  0.00  0.00     0.418 C 
HETATM   24  F           0       7.640  25.405  61.762  0.00  0.00    -0.166 F 
HETATM   25  F           0       8.659  23.690  60.910  0.00  0.00    -0.166 F 
HETATM   26  F           0       6.613  23.483  61.612  0.00  0.00    -0.166 F 
ENDBRANCH  20  23
ENDBRANCH  14  17
ENDBRANCH   1  11
BRANCH   5  27
HETATM   27  C           0       3.674  30.436  48.686  0.00  0.00     0.092 C 
HETATM   28  C           0       2.797  29.738  47.626  0.00  0.00     0.026 C 
HETATM   29  C           0       1.366  30.186  47.970  0.00  0.00     0.002 C 
HETATM   30  C           0       1.518  31.654  48.447  0.00  0.00     0.002 C 
HETATM   31  C           0       3.016  31.825  48.844  0.00  0.00     0.026 C 
ENDBRANCH   5  27
TORSDOF 4
ENDMDL
MODEL 40
REMARK VINA RESULT:      -7.9      2.119      2.821
REMARK  4 active torsions:
REMARK  status: ('A' for Active; 'I' for Inactive)
REMARK    1  A    between atoms: C_1  and  N_9 
REMARK    2  A    between atoms: N_5  and  C_6 
REMARK    3  A    between atoms: N_10  and  C_11 
REMARK    4  A    between atoms: C_15  and  C_17 
ROOT
HETATM    1  C           0       6.940  27.048  52.358  0.00  0.00     0.162 A 
HETATM    2  N           0       7.323  26.374  51.249  0.00  0.00    -0.198 NA
HETATM    3  N           0       6.372  27.978  49.735  0.00  0.00    -0.198 NA
HETATM    4  N           0       5.691  29.211  53.036  0.00  0.00    -0.236 NA
HETATM    5  N           0       5.314  29.831  50.894  0.00  0.00    -0.319 N 
HETATM    6  C           0       6.228  28.265  52.177  0.00  0.00     0.150 A 
HETATM    7  C           0       5.997  28.638  50.842  0.00  0.00     0.167 A 
HETATM    8  C           0       5.163  30.109  52.239  0.00  0.00     0.212 A 
HETATM    9  C           0       7.025  26.873  50.056  0.00  0.00     0.227 A 
HETATM   10 Cl           0       7.587  25.907  48.690  0.00  0.00    -0.041 Cl
ENDROOT
BRANCH   1  11
HETATM   11  N           0       7.260  26.516  53.567  0.00  0.00    -0.361 N 
HETATM   12  C           0       7.814  27.346  54.636  0.00  0.00     0.144 C 
HETATM   13  C           0       7.107  27.071  55.962  0.00  0.00     0.144 C 
HETATM   14  N           0       7.129  25.643  56.273  0.00  0.00    -0.363 N 
HETATM   15  C           0       7.631  24.744  55.235  0.00  0.00     0.144 C 
HETATM   16  C           0       7.035  25.094  53.873  0.00  0.00     0.144 C 
BRANCH  14  17
HETATM   17  C           0       6.662  25.170  57.473  0.00  0.00     0.125 A 
HETATM   18  C           0       7.422  25.300  58.667  0.00  0.00     0.051 A 
HETATM   19  C           0       6.901  24.792  59.842  0.00  0.00     0.021 A 
HETATM   20  C           0       5.645  24.172  59.838  0.00  0.00     0.065 A 
HETATM   21  C           0       4.969  24.104  58.620  0.00  0.00     0.135 A 
HETATM   22  N           0       5.449  24.579  57.473  0.00  0.00    -0.243 NA
BRANCH  20  23
HETATM   23  C           0       5.081  23.566  61.081  0.00  0.00     0.418 C 
HETATM   24  F           0       6.053  23.257  61.973  0.00  0.00    -0.166 F 
HETATM   25  F           0       4.411  22.412  60.835  0.00  0.00    -0.166 F 
HETATM   26  F           0       4.210  24.395  61.700  0.00  0.00    -0.166 F 
ENDBRANCH  20  23
ENDBRANCH  14  17
ENDBRANCH   1  11
BRANCH   5  27
HETATM   27  C           0       4.830  30.567  49.713  0.00  0.00     0.092 C 
HETATM   28  C           0       3.775  29.760  48.930  0.00  0.00     0.026 C 
HETATM   29  C           0       2.460  30.033  49.680  0.00  0.00     0.002 C 
HETATM   30  C           0       2.568  31.512  50.136  0.00  0.00     0.002 C 
HETATM   31  C           0       4.085  31.867  50.093  0.00  0.00     0.026 C 
ENDBRANCH   5  27
TORSDOF 4
ENDMDL
MODEL 41
REMARK VINA RESULT:      -7.8      2.245      3.356
REMARK  4 active torsions:
REMARK  status: ('A' for Active; 'I' for Inactive)
REMARK    1  A    between atoms: C_1  and  N_9 
REMARK    2  A    between atoms: N_5  and  C_6 
REMARK    3  A    between atoms: N_10  and  C_11 
REMARK    4  A    between atoms: C_15  and  C_17 
ROOT
HETATM    1  C           0       4.910  27.526  52.354  0.00  0.00     0.162 A 
HETATM    2  N           0       3.753  27.432  51.657  0.00  0.00    -0.198 NA
HETATM    3  N           0       4.158  29.427  50.381  0.00  0.00    -0.198 NA
HETATM    4  N           0       6.992  29.049  52.550  0.00  0.00    -0.236 NA
HETATM    5  N           0       6.269  30.480  50.955  0.00  0.00    -0.319 N 
HETATM    6  C           0       5.763  28.626  52.069  0.00  0.00     0.150 A 
HETATM    7  C           0       5.302  29.509  51.079  0.00  0.00     0.167 A 
HETATM    8  C           0       7.248  30.141  51.871  0.00  0.00     0.212 A 
HETATM    9  C           0       3.472  28.356  50.748  0.00  0.00     0.227 A 
HETATM   10 Cl           0       1.941  28.118  49.901  0.00  0.00    -0.041 Cl
ENDROOT
BRANCH   1  11
HETATM   11  N           0       5.175  26.565  53.277  0.00  0.00    -0.361 N 
HETATM   12  C           0       6.481  25.909  53.333  0.00  0.00     0.144 C 
HETATM   13  C           0       6.998  25.846  54.769  0.00  0.00     0.144 C 
HETATM   14  N           0       6.007  25.230  55.649  0.00  0.00    -0.363 N 
HETATM   15  C           0       4.688  24.959  55.079  0.00  0.00     0.144 C 
HETATM   16  C           0       4.179  26.160  54.284  0.00  0.00     0.144 C 
BRANCH  14  17
HETATM   17  C           0       6.296  24.955  56.962  0.00  0.00     0.125 A 
HETATM   18  C           0       5.329  24.377  57.828  0.00  0.00     0.051 A 
HETATM   19  C           0       5.679  24.134  59.143  0.00  0.00     0.021 A 
HETATM   20  C           0       6.968  24.451  59.592  0.00  0.00     0.065 A 
HETATM   21  C           0       7.851  25.004  58.664  0.00  0.00     0.135 A 
HETATM   22  N           0       7.539  25.253  57.394  0.00  0.00    -0.243 NA
BRANCH  20  23
HETATM   23  C           0       7.357  24.252  61.020  0.00  0.00     0.418 C 
HETATM   24  F           0       6.438  23.517  61.691  0.00  0.00    -0.166 F 
HETATM   25  F           0       7.471  25.424  61.694  0.00  0.00    -0.166 F 
HETATM   26  F           0       8.548  23.620  61.138  0.00  0.00    -0.166 F 
ENDBRANCH  20  23
ENDBRANCH  14  17
ENDBRANCH   1  11
BRANCH   5  27
HETATM   27  C           0       6.178  31.638  50.050  0.00  0.00     0.092 C 
HETATM   28  C           0       5.179  32.692  50.569  0.00  0.00     0.026 C 
HETATM   29  C           0       5.991  33.510  51.589  0.00  0.00     0.002 C 
HETATM   30  C           0       7.419  33.582  50.985  0.00  0.00     0.002 C 
HETATM   31  C           0       7.509  32.418  49.952  0.00  0.00     0.026 C 
ENDBRANCH   5  27
TORSDOF 4
ENDMDL
MODEL 42
REMARK VINA RESULT:      -7.4     13.966     16.999
REMARK  4 active torsions:
REMARK  status: ('A' for Active; 'I' for Inactive)
REMARK    1  A    between atoms: C_1  and  N_9 
REMARK    2  A    between atoms: N_5  and  C_6 
REMARK    3  A    between atoms: N_10  and  C_11 
REMARK    4  A    between atoms: C_15  and  C_17 
ROOT
HETATM    1  C           0       9.831  32.935  68.538  0.00  0.00     0.162 A 
HETATM    2  N           0      10.455  32.851  69.736  0.00  0.00    -0.198 NA
HETATM    3  N           0      12.145  31.338  68.945  0.00  0.00    -0.198 NA
HETATM    4  N           0      10.033  32.022  66.125  0.00  0.00    -0.236 NA
HETATM    5  N           0      11.877  30.800  66.592  0.00  0.00    -0.319 N 
HETATM    6  C           0      10.373  32.185  67.459  0.00  0.00     0.150 A 
HETATM    7  C           0      11.517  31.428  67.762  0.00  0.00     0.167 A 
HETATM    8  C           0      10.940  31.198  65.658  0.00  0.00     0.212 A 
HETATM    9  C           0      11.534  32.087  69.848  0.00  0.00     0.227 A 
HETATM   10 Cl           0      12.262  32.069  71.457  0.00  0.00    -0.041 Cl
ENDROOT
BRANCH   1  11
HETATM   11  N           0       8.730  33.726  68.449  0.00  0.00    -0.361 N 
HETATM   12  C           0       8.845  35.150  68.134  0.00  0.00     0.144 C 
HETATM   13  C           0       7.837  35.553  67.058  0.00  0.00     0.144 C 
HETATM   14  N           0       6.484  35.156  67.442  0.00  0.00    -0.363 N 
HETATM   15  C           0       6.349  34.323  68.636  0.00  0.00     0.144 C 
HETATM   16  C           0       7.371  33.189  68.631  0.00  0.00     0.144 C 
BRANCH  14  17
HETATM   17  C           0       5.397  35.521  66.690  0.00  0.00     0.125 A 
HETATM   18  C           0       4.080  35.481  67.223  0.00  0.00     0.051 A 
HETATM   19  C           0       3.025  35.851  66.410  0.00  0.00     0.021 A 
HETATM   20  C           0       3.270  36.260  65.092  0.00  0.00     0.065 A 
HETATM   21  C           0       4.597  36.278  64.663  0.00  0.00     0.135 A 
HETATM   22  N           0       5.631  35.922  65.423  0.00  0.00    -0.243 NA
BRANCH  20  23
HETATM   23  C           0       2.146  36.613  64.173  0.00  0.00     0.418 C 
HETATM   24  F           0       1.769  35.554  63.416  0.00  0.00    -0.166 F 
HETATM   25  F           0       2.479  37.600  63.305  0.00  0.00    -0.166 F 
HETATM   26  F           0       1.054  37.041  64.847  0.00  0.00    -0.166 F 
ENDBRANCH  20  23
ENDBRANCH  14  17
ENDBRANCH   1  11
BRANCH   5  27
HETATM   27  C           0      13.009  29.865  66.462  0.00  0.00     0.092 C 
HETATM   28  C           0      12.672  28.476  67.039  0.00  0.00     0.026 C 
HETATM   29  C           0      11.914  27.770  65.901  0.00  0.00     0.002 C 
HETATM   30  C           0      12.609  28.260  64.603  0.00  0.00     0.002 C 
HETATM   31  C           0      13.363  29.570  64.987  0.00  0.00     0.026 C 
ENDBRANCH   5  27
TORSDOF 4
ENDMDL
MODEL 43
REMARK VINA RESULT:      -7.4      1.913      2.591
REMARK  4 active torsions:
REMARK  status: ('A' for Active; 'I' for Inactive)
REMARK    1  A    between atoms: C_1  and  N_9 
REMARK    2  A    between atoms: N_5  and  C_6 
REMARK    3  A    between atoms: N_10  and  C_11 
REMARK    4  A    between atoms: C_15  and  C_17 
ROOT
HETATM    1  C           0       4.195  27.527  51.981  0.00  0.00     0.162 A 
HETATM    2  N           0       2.876  27.219  51.990  0.00  0.00    -0.198 NA
HETATM    3  N           0       2.327  28.763  50.233  0.00  0.00    -0.198 NA
HETATM    4  N           0       5.865  29.071  50.747  0.00  0.00    -0.236 NA
HETATM    5  N           0       4.271  29.967  49.417  0.00  0.00    -0.319 N 
HETATM    6  C           0       4.635  28.510  51.053  0.00  0.00     0.150 A 
HETATM    7  C           0       3.635  29.061  50.234  0.00  0.00     0.167 A 
HETATM    8  C           0       5.602  29.922  49.785  0.00  0.00     0.212 A 
HETATM    9  C           0       2.065  27.836  51.140  0.00  0.00     0.227 A 
HETATM   10 Cl           0       0.374  27.340  51.243  0.00  0.00    -0.041 Cl
ENDROOT
BRANCH   1  11
HETATM   11  N           0       5.005  26.879  52.859  0.00  0.00    -0.361 N 
HETATM   12  C           0       6.309  27.426  53.229  0.00  0.00     0.144 C 
HETATM   13  C           0       6.510  27.377  54.743  0.00  0.00     0.144 C 
HETATM   14  N           0       6.288  26.025  55.251  0.00  0.00    -0.363 N 
HETATM   15  C           0       5.760  25.039  54.309  0.00  0.00     0.144 C 
HETATM   16  C           0       4.599  25.619  53.503  0.00  0.00     0.144 C 
BRANCH  14  17
HETATM   17  C           0       6.531  25.710  56.564  0.00  0.00     0.125 A 
HETATM   18  C           0       7.697  26.171  57.233  0.00  0.00     0.051 A 
HETATM   19  C           0       7.889  25.809  58.553  0.00  0.00     0.021 A 
HETATM   20  C           0       6.940  25.010  59.203  0.00  0.00     0.065 A 
HETATM   21  C           0       5.822  24.618  58.467  0.00  0.00     0.135 A 
HETATM   22  N           0       5.614  24.946  57.194  0.00  0.00    -0.243 NA
BRANCH  20  23
HETATM   23  C           0       7.147  24.558  60.612  0.00  0.00     0.418 C 
HETATM   24  F           0       7.275  25.607  61.460  0.00  0.00    -0.166 F 
HETATM   25  F           0       8.273  23.815  60.755  0.00  0.00    -0.166 F 
HETATM   26  F           0       6.121  23.797  61.057  0.00  0.00    -0.166 F 
ENDBRANCH  20  23
ENDBRANCH  14  17
ENDBRANCH   1  11
BRANCH   5  27
HETATM   27  C           0       3.590  30.811  48.420  0.00  0.00     0.092 C 
HETATM   28  C           0       2.827  29.966  47.379  0.00  0.00     0.026 C 
HETATM   29  C           0       1.490  29.641  48.067  0.00  0.00     0.002 C 
HETATM   30  C           0       1.147  30.916  48.882  0.00  0.00     0.002 C 
HETATM   31  C           0       2.488  31.694  49.048  0.00  0.00     0.026 C 
ENDBRANCH   5  27
TORSDOF 4
ENDMDL
MODEL 44
REMARK VINA RESULT:      -7.2     14.019     16.816
REMARK  4 active torsions:
REMARK  status: ('A' for Active; 'I' for Inactive)
REMARK    1  A    between atoms: C_1  and  N_9 
REMARK    2  A    between atoms: N_5  and  C_6 
REMARK    3  A    between atoms: N_10  and  C_11 
REMARK    4  A    between atoms: C_15  and  C_17 
ROOT
HETATM    1  C           0       8.967  31.250  68.703  0.00  0.00     0.162 A 
HETATM    2  N           0       9.134  30.568  69.860  0.00  0.00    -0.198 NA
HETATM    3  N           0      10.951  29.242  69.016  0.00  0.00    -0.198 NA
HETATM    4  N           0       9.967  31.399  66.322  0.00  0.00    -0.236 NA
HETATM    5  N           0      11.501  29.784  66.715  0.00  0.00    -0.319 N 
HETATM    6  C           0       9.829  30.931  67.619  0.00  0.00     0.150 A 
HETATM    7  C           0      10.775  29.925  67.875  0.00  0.00     0.167 A 
HETATM    8  C           0      10.958  30.695  65.828  0.00  0.00     0.212 A 
HETATM    9  C           0      10.086  29.646  69.933  0.00  0.00     0.227 A 
HETATM   10 Cl           0      10.210  28.834  71.495  0.00  0.00    -0.041 Cl
ENDROOT
BRANCH   1  11
HETATM   11  N           0       7.987  32.191  68.657  0.00  0.00    -0.361 N 
HETATM   12  C           0       8.308  33.617  68.614  0.00  0.00     0.144 C 
HETATM   13  C           0       7.487  34.328  67.539  0.00  0.00     0.144 C 
HETATM   14  N           0       6.061  34.065  67.720  0.00  0.00    -0.363 N 
HETATM   15  C           0       5.690  33.074  68.729  0.00  0.00     0.144 C 
HETATM   16  C           0       6.561  31.825  68.614  0.00  0.00     0.144 C 
BRANCH  14  17
HETATM   17  C           0       5.118  34.697  66.949  0.00  0.00     0.125 A 
HETATM   18  C           0       3.758  34.770  67.352  0.00  0.00     0.051 A 
HETATM   19  C           0       2.855  35.410  66.525  0.00  0.00     0.021 A 
HETATM   20  C           0       3.293  35.977  65.320  0.00  0.00     0.065 A 
HETATM   21  C           0       4.650  35.865  65.016  0.00  0.00     0.135 A 
HETATM   22  N           0       5.539  35.249  65.792  0.00  0.00    -0.243 NA
BRANCH  20  23
HETATM   23  C           0       2.331  36.627  64.379  0.00  0.00     0.418 C 
HETATM   24  F           0       1.263  37.142  65.034  0.00  0.00    -0.166 F 
HETATM   25  F           0       1.833  35.756  63.466  0.00  0.00    -0.166 F 
HETATM   26  F           0       2.906  37.633  63.682  0.00  0.00    -0.166 F 
ENDBRANCH  20  23
ENDBRANCH  14  17
ENDBRANCH   1  11
BRANCH   5  27
HETATM   27  C           0      12.582  28.802  66.521  0.00  0.00     0.092 C 
HETATM   28  C           0      12.357  27.946  65.258  0.00  0.00     0.026 C 
HETATM   29  C           0      12.899  28.818  64.112  0.00  0.00     0.002 C 
HETATM   30  C           0      14.129  29.544  64.719  0.00  0.00     0.002 C 
HETATM   31  C           0      13.951  29.472  66.266  0.00  0.00     0.026 C 
ENDBRANCH   5  27
TORSDOF 4
ENDMDL
MODEL 45
REMARK VINA RESULT:      -7.2      5.317     10.162
REMARK  4 active torsions:
REMARK  status: ('A' for Active; 'I' for Inactive)
REMARK    1  A    between atoms: C_1  and  N_9 
REMARK    2  A    between atoms: N_5  and  C_6 
REMARK    3  A    between atoms: N_10  and  C_11 
REMARK    4  A    between atoms: C_15  and  C_17 
ROOT
HETATM    1  C           0       6.701  26.411  54.639  0.00  0.00     0.162 A 
HETATM    2  N           0       7.917  26.991  54.772  0.00  0.00    -0.198 NA
HETATM    3  N           0       8.294  26.098  56.970  0.00  0.00    -0.198 NA
HETATM    4  N           0       5.073  24.887  55.951  0.00  0.00    -0.236 NA
HETATM    5  N           0       6.447  24.722  57.739  0.00  0.00    -0.319 N 
HETATM    6  C           0       6.226  25.622  55.720  0.00  0.00     0.150 A 
HETATM    7  C           0       7.087  25.529  56.827  0.00  0.00     0.167 A 
HETATM    8  C           0       5.245  24.381  57.148  0.00  0.00     0.212 A 
HETATM    9  C           0       8.605  26.795  55.889  0.00  0.00     0.227 A 
HETATM   10 Cl           0      10.179  27.594  55.937  0.00  0.00    -0.041 Cl
ENDROOT
BRANCH   1  11
HETATM   11  N           0       6.019  26.625  53.483  0.00  0.00    -0.361 N 
HETATM   12  C           0       4.639  26.169  53.324  0.00  0.00     0.144 C 
HETATM   13  C           0       3.766  27.271  52.725  0.00  0.00     0.144 C 
HETATM   14  N           0       4.351  27.777  51.485  0.00  0.00    -0.363 N 
HETATM   15  C           0       5.690  27.302  51.139  0.00  0.00     0.144 C 
HETATM   16  C           0       6.618  27.352  52.351  0.00  0.00     0.144 C 
BRANCH  14  17
HETATM   17  C           0       3.683  28.685  50.703  0.00  0.00     0.125 A 
HETATM   18  C           0       3.691  30.073  51.009  0.00  0.00     0.051 A 
HETATM   19  C           0       2.989  30.936  50.188  0.00  0.00     0.021 A 
HETATM   20  C           0       2.296  30.434  49.079  0.00  0.00     0.065 A 
HETATM   21  C           0       2.357  29.059  48.854  0.00  0.00     0.135 A 
HETATM   22  N           0       3.021  28.205  49.630  0.00  0.00    -0.243 NA
BRANCH  20  23
HETATM   23  C           0       1.483  31.334  48.206  0.00  0.00     0.418 C 
HETATM   24  F           0       2.199  31.783  47.147  0.00  0.00    -0.166 F 
HETATM   25  F           0       1.047  32.437  48.864  0.00  0.00    -0.166 F 
HETATM   26  F           0       0.384  30.713  47.720  0.00  0.00    -0.166 F 
ENDBRANCH  20  23
ENDBRANCH  14  17
ENDBRANCH   1  11
BRANCH   5  27
HETATM   27  C           0       6.977  24.387  59.072  0.00  0.00     0.092 C 
HETATM   28  C           0       6.747  25.529  60.082  0.00  0.00     0.026 C 
HETATM   29  C           0       5.302  25.318  60.567  0.00  0.00     0.002 C 
HETATM   30  C           0       5.129  23.777  60.622  0.00  0.00     0.002 C 
HETATM   31  C           0       6.247  23.184  59.712  0.00  0.00     0.026 C 
ENDBRANCH   5  27
TORSDOF 4
ENDMDL
