MODEL 1
REMARK VINA RESULT:     -11.9      0.000      0.000
REMARK  4 active torsions:
REMARK  status: ('A' for Active; 'I' for Inactive)
REMARK    1  A    between atoms: C_1  and  N_9 
REMARK    2  A    between atoms: N_5  and  C_6 
REMARK    3  A    between atoms: N_10  and  C_11 
REMARK    4  A    between atoms: C_15  and  C_17 
ROOT
HETATM    1  C           0       5.704  28.892  52.194  0.00  0.00     0.162 A 
HETATM    2  N           0       6.513  29.976  52.256  0.00  0.00    -0.198 NA
HETATM    3  N           0       5.299  31.191  50.576  0.00  0.00    -0.198 NA
HETATM    4  N           0       3.603  28.049  50.940  0.00  0.00    -0.236 NA
HETATM    5  N           0       3.400  29.942  49.721  0.00  0.00    -0.319 N 
HETATM    6  C           0       4.619  28.930  51.277  0.00  0.00     0.150 A 
HETATM    7  C           0       4.505  30.110  50.524  0.00  0.00     0.167 A 
HETATM    8  C           0       2.915  28.684  50.022  0.00  0.00     0.212 A 
HETATM    9  C           0       6.258  31.014  51.471  0.00  0.00     0.227 A 
HETATM   10 Cl           0       7.376  32.368  51.652  0.00  0.00    -0.041 Cl
ENDROOT
BRANCH   1  11
HETATM   11  N           0       5.985  27.842  53.011  0.00  0.00    -0.361 N 
HETATM   12  C           0       7.364  27.422  53.254  0.00  0.00     0.144 C 
HETATM   13  C           0       7.609  27.195  54.746  0.00  0.00     0.144 C 
HETATM   14  N           0       6.620  26.271  55.297  0.00  0.00    -0.363 N 
HETATM   15  C           0       5.513  25.883  54.425  0.00  0.00     0.144 C 
HETATM   16  C           0       4.925  27.099  53.713  0.00  0.00     0.144 C 
BRANCH  14  17
HETATM   17  C           0       6.712  25.821  56.590  0.00  0.00     0.125 A 
HETATM   18  C           0       5.719  24.974  57.152  0.00  0.00     0.051 A 
HETATM   19  C           0       5.864  24.565  58.465  0.00  0.00     0.021 A 
HETATM   20  C           0       6.978  24.980  59.206  0.00  0.00     0.065 A 
HETATM   21  C           0       7.905  25.801  58.564  0.00  0.00     0.135 A 
HETATM   22  N           0       7.788  26.215  57.304  0.00  0.00    -0.243 NA
BRANCH  20  23
HETATM   23  C           0       7.134  24.599  60.643  0.00  0.00     0.418 C 
HETATM   24  F           0       8.252  23.861  60.845  0.00  0.00    -0.166 F 
HETATM   25  F           0       6.097  23.848  61.093  0.00  0.00    -0.166 F 
HETATM   26  F           0       7.208  25.681  61.450  0.00  0.00    -0.166 F 
ENDBRANCH  20  23
ENDBRANCH  14  17
ENDBRANCH   1  11
BRANCH   5  27
HETATM   27  C           0       2.931  30.928  48.731  0.00  0.00     0.092 C 
HETATM   28  C           0       2.127  30.260  47.597  0.00  0.00     0.026 C 
HETATM   29  C           0       0.709  30.117  48.176  0.00  0.00     0.002 C 
HETATM   30  C           0       0.506  31.391  49.037  0.00  0.00     0.002 C 
HETATM   31  C           0       1.933  31.942  49.335  0.00  0.00     0.026 C 
ENDBRANCH   5  27
TORSDOF 4
ENDMDL
MODEL 2
REMARK VINA RESULT:      -9.0      5.856     10.244
REMARK  4 active torsions:
REMARK  status: ('A' for Active; 'I' for Inactive)
REMARK    1  A    between atoms: C_1  and  N_9 
REMARK    2  A    between atoms: N_5  and  C_6 
REMARK    3  A    between atoms: N_10  and  C_11 
REMARK    4  A    between atoms: C_15  and  C_17 
ROOT
HETATM    1  C           0       5.476  28.233  51.189  0.00  0.00     0.162 A 
HETATM    2  N           0       6.151  27.504  50.269  0.00  0.00    -0.198 NA
HETATM    3  N           0       6.863  25.844  51.852  0.00  0.00    -0.198 NA
HETATM    4  N           0       4.915  28.213  53.715  0.00  0.00    -0.236 NA
HETATM    5  N           0       6.055  26.298  54.096  0.00  0.00    -0.319 N 
HETATM    6  C           0       5.477  27.763  52.531  0.00  0.00     0.150 A 
HETATM    7  C           0       6.191  26.575  52.755  0.00  0.00     0.167 A 
HETATM    8  C           0       5.283  27.324  54.606  0.00  0.00     0.212 A 
HETATM    9  C           0       6.771  26.397  50.653  0.00  0.00     0.227 A 
HETATM   10 Cl           0       7.606  25.531  49.360  0.00  0.00    -0.041 Cl
ENDROOT
BRANCH   1  11
HETATM   11  N           0       4.847  29.362  50.769  0.00  0.00    -0.361 N 
HETATM   12  C           0       4.532  29.571  49.356  0.00  0.00     0.144 C 
HETATM   13  C           0       3.093  30.055  49.185  0.00  0.00     0.144 C 
HETATM   14  N           0       2.842  31.234  50.011  0.00  0.00    -0.363 N 
HETATM   15  C           0       3.892  31.623  50.951  0.00  0.00     0.144 C 
HETATM   16  C           0       4.422  30.410  51.712  0.00  0.00     0.144 C 
BRANCH  14  17
HETATM   17  C           0       1.655  31.918  49.930  0.00  0.00     0.125 A 
HETATM   18  C           0       0.886  31.928  48.735  0.00  0.00     0.051 A 
HETATM   19  C           0      -0.294  32.647  48.714  0.00  0.00     0.021 A 
HETATM   20  C           0      -0.711  33.339  49.859  0.00  0.00     0.065 A 
HETATM   21  C           0       0.105  33.259  50.987  0.00  0.00     0.135 A 
HETATM   22  N           0       1.249  32.580  51.034  0.00  0.00    -0.243 NA
BRANCH  20  23
HETATM   23  C           0      -1.953  34.169  49.849  0.00  0.00     0.418 C 
HETATM   24  F           0      -1.692  35.463  50.152  0.00  0.00    -0.166 F 
HETATM   25  F           0      -2.866  33.742  50.758  0.00  0.00    -0.166 F 
HETATM   26  F           0      -2.567  34.149  48.644  0.00  0.00    -0.166 F 
ENDBRANCH  20  23
ENDBRANCH  14  17
ENDBRANCH   1  11
BRANCH   5  27
HETATM   27  C           0       6.683  25.153  54.779  0.00  0.00     0.092 C 
HETATM   28  C           0       8.061  25.522  55.364  0.00  0.00     0.026 C 
HETATM   29  C           0       7.732  26.189  56.711  0.00  0.00     0.002 C 
HETATM   30  C           0       6.507  25.403  57.249  0.00  0.00     0.002 C 
HETATM   31  C           0       5.877  24.689  56.014  0.00  0.00     0.026 C 
ENDBRANCH   5  27
TORSDOF 4
ENDMDL
MODEL 3
REMARK VINA RESULT:      -8.0      1.845      2.201
REMARK  4 active torsions:
REMARK  status: ('A' for Active; 'I' for Inactive)
REMARK    1  A    between atoms: C_1  and  N_9 
REMARK    2  A    between atoms: N_5  and  C_6 
REMARK    3  A    between atoms: N_10  and  C_11 
REMARK    4  A    between atoms: C_15  and  C_17 
ROOT
HETATM    1  C           0       5.180  27.270  52.082  0.00  0.00     0.162 A 
HETATM    2  N           0       6.267  26.926  51.352  0.00  0.00    -0.198 NA
HETATM    3  N           0       5.744  28.424  49.549  0.00  0.00    -0.198 NA
HETATM    4  N           0       3.131  28.847  51.972  0.00  0.00    -0.236 NA
HETATM    5  N           0       3.707  29.681  49.951  0.00  0.00    -0.319 N 
HETATM    6  C           0       4.304  28.248  51.538  0.00  0.00     0.150 A 
HETATM    7  C           0       4.670  28.756  50.281  0.00  0.00     0.167 A 
HETATM    8  C           0       2.816  29.678  51.007  0.00  0.00     0.212 A 
HETATM    9  C           0       6.467  27.511  50.179  0.00  0.00     0.227 A 
HETATM   10 Cl           0       7.921  26.984  49.329  0.00  0.00    -0.041 Cl
ENDROOT
BRANCH   1  11
HETATM   11  N           0       5.001  26.658  53.282  0.00  0.00    -0.361 N 
HETATM   12  C           0       5.174  25.213  53.428  0.00  0.00     0.144 C 
HETATM   13  C           0       6.020  24.887  54.658  0.00  0.00     0.144 C 
HETATM   14  N           0       5.464  25.523  55.851  0.00  0.00    -0.363 N 
HETATM   15  C           0       4.361  26.461  55.651  0.00  0.00     0.144 C 
HETATM   16  C           0       4.657  27.416  54.497  0.00  0.00     0.144 C 
BRANCH  14  17
HETATM   17  C           0       5.983  25.274  57.096  0.00  0.00     0.125 A 
HETATM   18  C           0       7.246  25.792  57.490  0.00  0.00     0.051 A 
HETATM   19  C           0       7.719  25.495  58.754  0.00  0.00     0.021 A 
HETATM   20  C           0       6.951  24.704  59.618  0.00  0.00     0.065 A 
HETATM   21  C           0       5.718  24.252  59.147  0.00  0.00     0.135 A 
HETATM   22  N           0       5.241  24.518  57.933  0.00  0.00    -0.243 NA
BRANCH  20  23
HETATM   23  C           0       7.459  24.320  60.970  0.00  0.00     0.418 C 
HETATM   24  F           0       7.640  25.405  61.762  0.00  0.00    -0.166 F 
HETATM   25  F           0       8.659  23.690  60.910  0.00  0.00    -0.166 F 
HETATM   26  F           0       6.613  23.483  61.612  0.00  0.00    -0.166 F 
ENDBRANCH  20  23
ENDBRANCH  14  17
ENDBRANCH   1  11
BRANCH   5  27
HETATM   27  C           0       3.674  30.436  48.686  0.00  0.00     0.092 C 
HETATM   28  C           0       2.797  29.738  47.626  0.00  0.00     0.026 C 
HETATM   29  C           0       1.366  30.186  47.970  0.00  0.00     0.002 C 
HETATM   30  C           0       1.518  31.654  48.447  0.00  0.00     0.002 C 
HETATM   31  C           0       3.016  31.825  48.844  0.00  0.00     0.026 C 
ENDBRANCH   5  27
TORSDOF 4
ENDMDL
MODEL 4
REMARK VINA RESULT:      -7.9      2.119      2.821
REMARK  4 active torsions:
REMARK  status: ('A' for Active; 'I' for Inactive)
REMARK    1  A    between atoms: C_1  and  N_9 
REMARK    2  A    between atoms: N_5  and  C_6 
REMARK    3  A    between atoms: N_10  and  C_11 
REMARK    4  A    between atoms: C_15  and  C_17 
ROOT
HETATM    1  C           0       6.940  27.048  52.358  0.00  0.00     0.162 A 
HETATM    2  N           0       7.323  26.374  51.249  0.00  0.00    -0.198 NA
HETATM    3  N           0       6.372  27.978  49.735  0.00  0.00    -0.198 NA
HETATM    4  N           0       5.691  29.211  53.036  0.00  0.00    -0.236 NA
HETATM    5  N           0       5.314  29.831  50.894  0.00  0.00    -0.319 N 
HETATM    6  C           0       6.228  28.265  52.177  0.00  0.00     0.150 A 
HETATM    7  C           0       5.997  28.638  50.842  0.00  0.00     0.167 A 
HETATM    8  C           0       5.163  30.109  52.239  0.00  0.00     0.212 A 
HETATM    9  C           0       7.025  26.873  50.056  0.00  0.00     0.227 A 
HETATM   10 Cl           0       7.587  25.907  48.690  0.00  0.00    -0.041 Cl
ENDROOT
BRANCH   1  11
HETATM   11  N           0       7.260  26.516  53.567  0.00  0.00    -0.361 N 
HETATM   12  C           0       7.814  27.346  54.636  0.00  0.00     0.144 C 
HETATM   13  C           0       7.107  27.071  55.962  0.00  0.00     0.144 C 
HETATM   14  N           0       7.129  25.643  56.273  0.00  0.00    -0.363 N 
HETATM   15  C           0       7.631  24.744  55.235  0.00  0.00     0.144 C 
HETATM   16  C           0       7.035  25.094  53.873  0.00  0.00     0.144 C 
BRANCH  14  17
HETATM   17  C           0       6.662  25.170  57.473  0.00  0.00     0.125 A 
HETATM   18  C           0       7.422  25.300  58.667  0.00  0.00     0.051 A 
HETATM   19  C           0       6.901  24.792  59.842  0.00  0.00     0.021 A 
HETATM   20  C           0       5.645  24.172  59.838  0.00  0.00     0.065 A 
HETATM   21  C           0       4.969  24.104  58.620  0.00  0.00     0.135 A 
HETATM   22  N           0       5.449  24.579  57.473  0.00  0.00    -0.243 NA
BRANCH  20  23
HETATM   23  C           0       5.081  23.566  61.081  0.00  0.00     0.418 C 
HETATM   24  F           0       6.053  23.257  61.973  0.00  0.00    -0.166 F 
HETATM   25  F           0       4.411  22.412  60.835  0.00  0.00    -0.166 F 
HETATM   26  F           0       4.210  24.395  61.700  0.00  0.00    -0.166 F 
ENDBRANCH  20  23
ENDBRANCH  14  17
ENDBRANCH   1  11
BRANCH   5  27
HETATM   27  C           0       4.830  30.567  49.713  0.00  0.00     0.092 C 
HETATM   28  C           0       3.775  29.760  48.930  0.00  0.00     0.026 C 
HETATM   29  C           0       2.460  30.033  49.680  0.00  0.00     0.002 C 
HETATM   30  C           0       2.568  31.512  50.136  0.00  0.00     0.002 C 
HETATM   31  C           0       4.085  31.867  50.093  0.00  0.00     0.026 C 
ENDBRANCH   5  27
TORSDOF 4
ENDMDL
MODEL 5
REMARK VINA RESULT:      -7.8      2.245      3.356
REMARK  4 active torsions:
REMARK  status: ('A' for Active; 'I' for Inactive)
REMARK    1  A    between atoms: C_1  and  N_9 
REMARK    2  A    between atoms: N_5  and  C_6 
REMARK    3  A    between atoms: N_10  and  C_11 
REMARK    4  A    between atoms: C_15  and  C_17 
ROOT
HETATM    1  C           0       4.910  27.526  52.354  0.00  0.00     0.162 A 
HETATM    2  N           0       3.753  27.432  51.657  0.00  0.00    -0.198 NA
HETATM    3  N           0       4.158  29.427  50.381  0.00  0.00    -0.198 NA
HETATM    4  N           0       6.992  29.049  52.550  0.00  0.00    -0.236 NA
HETATM    5  N           0       6.269  30.480  50.955  0.00  0.00    -0.319 N 
HETATM    6  C           0       5.763  28.626  52.069  0.00  0.00     0.150 A 
HETATM    7  C           0       5.302  29.509  51.079  0.00  0.00     0.167 A 
HETATM    8  C           0       7.248  30.141  51.871  0.00  0.00     0.212 A 
HETATM    9  C           0       3.472  28.356  50.748  0.00  0.00     0.227 A 
HETATM   10 Cl           0       1.941  28.118  49.901  0.00  0.00    -0.041 Cl
ENDROOT
BRANCH   1  11
HETATM   11  N           0       5.175  26.565  53.277  0.00  0.00    -0.361 N 
HETATM   12  C           0       6.481  25.909  53.333  0.00  0.00     0.144 C 
HETATM   13  C           0       6.998  25.846  54.769  0.00  0.00     0.144 C 
HETATM   14  N           0       6.007  25.230  55.649  0.00  0.00    -0.363 N 
HETATM   15  C           0       4.688  24.959  55.079  0.00  0.00     0.144 C 
HETATM   16  C           0       4.179  26.160  54.284  0.00  0.00     0.144 C 
BRANCH  14  17
HETATM   17  C           0       6.296  24.955  56.962  0.00  0.00     0.125 A 
HETATM   18  C           0       5.329  24.377  57.828  0.00  0.00     0.051 A 
HETATM   19  C           0       5.679  24.134  59.143  0.00  0.00     0.021 A 
HETATM   20  C           0       6.968  24.451  59.592  0.00  0.00     0.065 A 
HETATM   21  C           0       7.851  25.004  58.664  0.00  0.00     0.135 A 
HETATM   22  N           0       7.539  25.253  57.394  0.00  0.00    -0.243 NA
BRANCH  20  23
HETATM   23  C           0       7.357  24.252  61.020  0.00  0.00     0.418 C 
HETATM   24  F           0       6.438  23.517  61.691  0.00  0.00    -0.166 F 
HETATM   25  F           0       7.471  25.424  61.694  0.00  0.00    -0.166 F 
HETATM   26  F           0       8.548  23.620  61.138  0.00  0.00    -0.166 F 
ENDBRANCH  20  23
ENDBRANCH  14  17
ENDBRANCH   1  11
BRANCH   5  27
HETATM   27  C           0       6.178  31.638  50.050  0.00  0.00     0.092 C 
HETATM   28  C           0       5.179  32.692  50.569  0.00  0.00     0.026 C 
HETATM   29  C           0       5.991  33.510  51.589  0.00  0.00     0.002 C 
HETATM   30  C           0       7.419  33.582  50.985  0.00  0.00     0.002 C 
HETATM   31  C           0       7.509  32.418  49.952  0.00  0.00     0.026 C 
ENDBRANCH   5  27
TORSDOF 4
ENDMDL
MODEL 6
REMARK VINA RESULT:      -7.4     13.966     16.999
REMARK  4 active torsions:
REMARK  status: ('A' for Active; 'I' for Inactive)
REMARK    1  A    between atoms: C_1  and  N_9 
REMARK    2  A    between atoms: N_5  and  C_6 
REMARK    3  A    between atoms: N_10  and  C_11 
REMARK    4  A    between atoms: C_15  and  C_17 
ROOT
HETATM    1  C           0       9.831  32.935  68.538  0.00  0.00     0.162 A 
HETATM    2  N           0      10.455  32.851  69.736  0.00  0.00    -0.198 NA
HETATM    3  N           0      12.145  31.338  68.945  0.00  0.00    -0.198 NA
HETATM    4  N           0      10.033  32.022  66.125  0.00  0.00    -0.236 NA
HETATM    5  N           0      11.877  30.800  66.592  0.00  0.00    -0.319 N 
HETATM    6  C           0      10.373  32.185  67.459  0.00  0.00     0.150 A 
HETATM    7  C           0      11.517  31.428  67.762  0.00  0.00     0.167 A 
HETATM    8  C           0      10.940  31.198  65.658  0.00  0.00     0.212 A 
HETATM    9  C           0      11.534  32.087  69.848  0.00  0.00     0.227 A 
HETATM   10 Cl           0      12.262  32.069  71.457  0.00  0.00    -0.041 Cl
ENDROOT
BRANCH   1  11
HETATM   11  N           0       8.730  33.726  68.449  0.00  0.00    -0.361 N 
HETATM   12  C           0       8.845  35.150  68.134  0.00  0.00     0.144 C 
HETATM   13  C           0       7.837  35.553  67.058  0.00  0.00     0.144 C 
HETATM   14  N           0       6.484  35.156  67.442  0.00  0.00    -0.363 N 
HETATM   15  C           0       6.349  34.323  68.636  0.00  0.00     0.144 C 
HETATM   16  C           0       7.371  33.189  68.631  0.00  0.00     0.144 C 
BRANCH  14  17
HETATM   17  C           0       5.397  35.521  66.690  0.00  0.00     0.125 A 
HETATM   18  C           0       4.080  35.481  67.223  0.00  0.00     0.051 A 
HETATM   19  C           0       3.025  35.851  66.410  0.00  0.00     0.021 A 
HETATM   20  C           0       3.270  36.260  65.092  0.00  0.00     0.065 A 
HETATM   21  C           0       4.597  36.278  64.663  0.00  0.00     0.135 A 
HETATM   22  N           0       5.631  35.922  65.423  0.00  0.00    -0.243 NA
BRANCH  20  23
HETATM   23  C           0       2.146  36.613  64.173  0.00  0.00     0.418 C 
HETATM   24  F           0       1.769  35.554  63.416  0.00  0.00    -0.166 F 
HETATM   25  F           0       2.479  37.600  63.305  0.00  0.00    -0.166 F 
HETATM   26  F           0       1.054  37.041  64.847  0.00  0.00    -0.166 F 
ENDBRANCH  20  23
ENDBRANCH  14  17
ENDBRANCH   1  11
BRANCH   5  27
HETATM   27  C           0      13.009  29.865  66.462  0.00  0.00     0.092 C 
HETATM   28  C           0      12.672  28.476  67.039  0.00  0.00     0.026 C 
HETATM   29  C           0      11.914  27.770  65.901  0.00  0.00     0.002 C 
HETATM   30  C           0      12.609  28.260  64.603  0.00  0.00     0.002 C 
HETATM   31  C           0      13.363  29.570  64.987  0.00  0.00     0.026 C 
ENDBRANCH   5  27
TORSDOF 4
ENDMDL
MODEL 7
REMARK VINA RESULT:      -7.4      1.913      2.591
REMARK  4 active torsions:
REMARK  status: ('A' for Active; 'I' for Inactive)
REMARK    1  A    between atoms: C_1  and  N_9 
REMARK    2  A    between atoms: N_5  and  C_6 
REMARK    3  A    between atoms: N_10  and  C_11 
REMARK    4  A    between atoms: C_15  and  C_17 
ROOT
HETATM    1  C           0       4.195  27.527  51.981  0.00  0.00     0.162 A 
HETATM    2  N           0       2.876  27.219  51.990  0.00  0.00    -0.198 NA
HETATM    3  N           0       2.327  28.763  50.233  0.00  0.00    -0.198 NA
HETATM    4  N           0       5.865  29.071  50.747  0.00  0.00    -0.236 NA
HETATM    5  N           0       4.271  29.967  49.417  0.00  0.00    -0.319 N 
HETATM    6  C           0       4.635  28.510  51.053  0.00  0.00     0.150 A 
HETATM    7  C           0       3.635  29.061  50.234  0.00  0.00     0.167 A 
HETATM    8  C           0       5.602  29.922  49.785  0.00  0.00     0.212 A 
HETATM    9  C           0       2.065  27.836  51.140  0.00  0.00     0.227 A 
HETATM   10 Cl           0       0.374  27.340  51.243  0.00  0.00    -0.041 Cl
ENDROOT
BRANCH   1  11
HETATM   11  N           0       5.005  26.879  52.859  0.00  0.00    -0.361 N 
HETATM   12  C           0       6.309  27.426  53.229  0.00  0.00     0.144 C 
HETATM   13  C           0       6.510  27.377  54.743  0.00  0.00     0.144 C 
HETATM   14  N           0       6.288  26.025  55.251  0.00  0.00    -0.363 N 
HETATM   15  C           0       5.760  25.039  54.309  0.00  0.00     0.144 C 
HETATM   16  C           0       4.599  25.619  53.503  0.00  0.00     0.144 C 
BRANCH  14  17
HETATM   17  C           0       6.531  25.710  56.564  0.00  0.00     0.125 A 
HETATM   18  C           0       7.697  26.171  57.233  0.00  0.00     0.051 A 
HETATM   19  C           0       7.889  25.809  58.553  0.00  0.00     0.021 A 
HETATM   20  C           0       6.940  25.010  59.203  0.00  0.00     0.065 A 
HETATM   21  C           0       5.822  24.618  58.467  0.00  0.00     0.135 A 
HETATM   22  N           0       5.614  24.946  57.194  0.00  0.00    -0.243 NA
BRANCH  20  23
HETATM   23  C           0       7.147  24.558  60.612  0.00  0.00     0.418 C 
HETATM   24  F           0       7.275  25.607  61.460  0.00  0.00    -0.166 F 
HETATM   25  F           0       8.273  23.815  60.755  0.00  0.00    -0.166 F 
HETATM   26  F           0       6.121  23.797  61.057  0.00  0.00    -0.166 F 
ENDBRANCH  20  23
ENDBRANCH  14  17
ENDBRANCH   1  11
BRANCH   5  27
HETATM   27  C           0       3.590  30.811  48.420  0.00  0.00     0.092 C 
HETATM   28  C           0       2.827  29.966  47.379  0.00  0.00     0.026 C 
HETATM   29  C           0       1.490  29.641  48.067  0.00  0.00     0.002 C 
HETATM   30  C           0       1.147  30.916  48.882  0.00  0.00     0.002 C 
HETATM   31  C           0       2.488  31.694  49.048  0.00  0.00     0.026 C 
ENDBRANCH   5  27
TORSDOF 4
ENDMDL
MODEL 8
REMARK VINA RESULT:      -7.2     14.019     16.816
REMARK  4 active torsions:
REMARK  status: ('A' for Active; 'I' for Inactive)
REMARK    1  A    between atoms: C_1  and  N_9 
REMARK    2  A    between atoms: N_5  and  C_6 
REMARK    3  A    between atoms: N_10  and  C_11 
REMARK    4  A    between atoms: C_15  and  C_17 
ROOT
HETATM    1  C           0       8.967  31.250  68.703  0.00  0.00     0.162 A 
HETATM    2  N           0       9.134  30.568  69.860  0.00  0.00    -0.198 NA
HETATM    3  N           0      10.951  29.242  69.016  0.00  0.00    -0.198 NA
HETATM    4  N           0       9.967  31.399  66.322  0.00  0.00    -0.236 NA
HETATM    5  N           0      11.501  29.784  66.715  0.00  0.00    -0.319 N 
HETATM    6  C           0       9.829  30.931  67.619  0.00  0.00     0.150 A 
HETATM    7  C           0      10.775  29.925  67.875  0.00  0.00     0.167 A 
HETATM    8  C           0      10.958  30.695  65.828  0.00  0.00     0.212 A 
HETATM    9  C           0      10.086  29.646  69.933  0.00  0.00     0.227 A 
HETATM   10 Cl           0      10.210  28.834  71.495  0.00  0.00    -0.041 Cl
ENDROOT
BRANCH   1  11
HETATM   11  N           0       7.987  32.191  68.657  0.00  0.00    -0.361 N 
HETATM   12  C           0       8.308  33.617  68.614  0.00  0.00     0.144 C 
HETATM   13  C           0       7.487  34.328  67.539  0.00  0.00     0.144 C 
HETATM   14  N           0       6.061  34.065  67.720  0.00  0.00    -0.363 N 
HETATM   15  C           0       5.690  33.074  68.729  0.00  0.00     0.144 C 
HETATM   16  C           0       6.561  31.825  68.614  0.00  0.00     0.144 C 
BRANCH  14  17
HETATM   17  C           0       5.118  34.697  66.949  0.00  0.00     0.125 A 
HETATM   18  C           0       3.758  34.770  67.352  0.00  0.00     0.051 A 
HETATM   19  C           0       2.855  35.410  66.525  0.00  0.00     0.021 A 
HETATM   20  C           0       3.293  35.977  65.320  0.00  0.00     0.065 A 
HETATM   21  C           0       4.650  35.865  65.016  0.00  0.00     0.135 A 
HETATM   22  N           0       5.539  35.249  65.792  0.00  0.00    -0.243 NA
BRANCH  20  23
HETATM   23  C           0       2.331  36.627  64.379  0.00  0.00     0.418 C 
HETATM   24  F           0       1.263  37.142  65.034  0.00  0.00    -0.166 F 
HETATM   25  F           0       1.833  35.756  63.466  0.00  0.00    -0.166 F 
HETATM   26  F           0       2.906  37.633  63.682  0.00  0.00    -0.166 F 
ENDBRANCH  20  23
ENDBRANCH  14  17
ENDBRANCH   1  11
BRANCH   5  27
HETATM   27  C           0      12.582  28.802  66.521  0.00  0.00     0.092 C 
HETATM   28  C           0      12.357  27.946  65.258  0.00  0.00     0.026 C 
HETATM   29  C           0      12.899  28.818  64.112  0.00  0.00     0.002 C 
HETATM   30  C           0      14.129  29.544  64.719  0.00  0.00     0.002 C 
HETATM   31  C           0      13.951  29.472  66.266  0.00  0.00     0.026 C 
ENDBRANCH   5  27
TORSDOF 4
ENDMDL
MODEL 9
REMARK VINA RESULT:      -7.2      5.317     10.162
REMARK  4 active torsions:
REMARK  status: ('A' for Active; 'I' for Inactive)
REMARK    1  A    between atoms: C_1  and  N_9 
REMARK    2  A    between atoms: N_5  and  C_6 
REMARK    3  A    between atoms: N_10  and  C_11 
REMARK    4  A    between atoms: C_15  and  C_17 
ROOT
HETATM    1  C           0       6.701  26.411  54.639  0.00  0.00     0.162 A 
HETATM    2  N           0       7.917  26.991  54.772  0.00  0.00    -0.198 NA
HETATM    3  N           0       8.294  26.098  56.970  0.00  0.00    -0.198 NA
HETATM    4  N           0       5.073  24.887  55.951  0.00  0.00    -0.236 NA
HETATM    5  N           0       6.447  24.722  57.739  0.00  0.00    -0.319 N 
HETATM    6  C           0       6.226  25.622  55.720  0.00  0.00     0.150 A 
HETATM    7  C           0       7.087  25.529  56.827  0.00  0.00     0.167 A 
HETATM    8  C           0       5.245  24.381  57.148  0.00  0.00     0.212 A 
HETATM    9  C           0       8.605  26.795  55.889  0.00  0.00     0.227 A 
HETATM   10 Cl           0      10.179  27.594  55.937  0.00  0.00    -0.041 Cl
ENDROOT
BRANCH   1  11
HETATM   11  N           0       6.019  26.625  53.483  0.00  0.00    -0.361 N 
HETATM   12  C           0       4.639  26.169  53.324  0.00  0.00     0.144 C 
HETATM   13  C           0       3.766  27.271  52.725  0.00  0.00     0.144 C 
HETATM   14  N           0       4.351  27.777  51.485  0.00  0.00    -0.363 N 
HETATM   15  C           0       5.690  27.302  51.139  0.00  0.00     0.144 C 
HETATM   16  C           0       6.618  27.352  52.351  0.00  0.00     0.144 C 
BRANCH  14  17
HETATM   17  C           0       3.683  28.685  50.703  0.00  0.00     0.125 A 
HETATM   18  C           0       3.691  30.073  51.009  0.00  0.00     0.051 A 
HETATM   19  C           0       2.989  30.936  50.188  0.00  0.00     0.021 A 
HETATM   20  C           0       2.296  30.434  49.079  0.00  0.00     0.065 A 
HETATM   21  C           0       2.357  29.059  48.854  0.00  0.00     0.135 A 
HETATM   22  N           0       3.021  28.205  49.630  0.00  0.00    -0.243 NA
BRANCH  20  23
HETATM   23  C           0       1.483  31.334  48.206  0.00  0.00     0.418 C 
HETATM   24  F           0       2.199  31.783  47.147  0.00  0.00    -0.166 F 
HETATM   25  F           0       1.047  32.437  48.864  0.00  0.00    -0.166 F 
HETATM   26  F           0       0.384  30.713  47.720  0.00  0.00    -0.166 F 
ENDBRANCH  20  23
ENDBRANCH  14  17
ENDBRANCH   1  11
BRANCH   5  27
HETATM   27  C           0       6.977  24.387  59.072  0.00  0.00     0.092 C 
HETATM   28  C           0       6.747  25.529  60.082  0.00  0.00     0.026 C 
HETATM   29  C           0       5.302  25.318  60.567  0.00  0.00     0.002 C 
HETATM   30  C           0       5.129  23.777  60.622  0.00  0.00     0.002 C 
HETATM   31  C           0       6.247  23.184  59.712  0.00  0.00     0.026 C 
ENDBRANCH   5  27
TORSDOF 4
ENDMDL
MODEL 10
REMARK VINA RESULT:      -7.1      6.400     10.853
REMARK  4 active torsions:
REMARK  status: ('A' for Active; 'I' for Inactive)
REMARK    1  A    between atoms: C_1  and  N_9 
REMARK    2  A    between atoms: N_5  and  C_6 
REMARK    3  A    between atoms: N_10  and  C_11 
REMARK    4  A    between atoms: C_15  and  C_17 
ROOT
HETATM    1  C           0       4.658  27.909  51.735  0.00  0.00     0.162 A 
HETATM    2  N           0       5.511  27.583  50.736  0.00  0.00    -0.198 NA
HETATM    3  N           0       6.835  26.124  52.111  0.00  0.00    -0.198 NA
HETATM    4  N           0       4.244  27.404  54.239  0.00  0.00    -0.236 NA
HETATM    5  N           0       6.009  26.000  54.391  0.00  0.00    -0.319 N 
HETATM    6  C           0       4.881  27.324  53.011  0.00  0.00     0.150 A 
HETATM    7  C           0       5.983  26.456  53.093  0.00  0.00     0.167 A 
HETATM    8  C           0       4.942  26.614  55.018  0.00  0.00     0.212 A 
HETATM    9  C           0       6.502  26.738  50.987  0.00  0.00     0.227 A 
HETATM   10 Cl           0       7.539  26.384  49.602  0.00  0.00    -0.041 Cl
ENDROOT
BRANCH   1  11
HETATM   11  N           0       3.648  28.775  51.451  0.00  0.00    -0.361 N 
HETATM   12  C           0       3.910  30.196  51.232  0.00  0.00     0.144 C 
HETATM   13  C           0       3.181  30.699  49.987  0.00  0.00     0.144 C 
HETATM   14  N           0       1.757  30.380  50.058  0.00  0.00    -0.363 N 
HETATM   15  C           0       1.321  29.521  51.158  0.00  0.00     0.144 C 
HETATM   16  C           0       2.253  28.322  51.317  0.00  0.00     0.144 C 
BRANCH  14  17
HETATM   17  C           0       0.878  30.840  49.110  0.00  0.00     0.125 A 
HETATM   18  C           0       0.455  32.197  49.088  0.00  0.00     0.051 A 
HETATM   19  C           0      -0.441  32.595  48.114  0.00  0.00     0.021 A 
HETATM   20  C           0      -0.906  31.668  47.172  0.00  0.00     0.065 A 
HETATM   21  C           0      -0.424  30.362  47.268  0.00  0.00     0.135 A 
HETATM   22  N           0       0.434  29.950  48.198  0.00  0.00    -0.243 NA
BRANCH  20  23
HETATM   23  C           0      -1.917  32.055  46.142  0.00  0.00     0.418 C 
HETATM   24  F           0      -2.544  30.972  45.625  0.00  0.00    -0.166 F 
HETATM   25  F           0      -1.359  32.709  45.092  0.00  0.00    -0.166 F 
HETATM   26  F           0      -2.868  32.873  46.647  0.00  0.00    -0.166 F 
ENDBRANCH  20  23
ENDBRANCH  14  17
ENDBRANCH   1  11
BRANCH   5  27
HETATM   27  C           0       7.033  25.090  54.934  0.00  0.00     0.092 C 
HETATM   28  C           0       8.369  25.818  55.188  0.00  0.00     0.026 C 
HETATM   29  C           0       8.180  26.481  56.563  0.00  0.00     0.002 C 
HETATM   30  C           0       7.333  25.466  57.375  0.00  0.00     0.002 C 
HETATM   31  C           0       6.652  24.536  56.326  0.00  0.00     0.026 C 
ENDBRANCH   5  27
TORSDOF 4
ENDMDL
