MODEL 1
REMARK VINA RESULT:     -11.9      0.000      0.000
REMARK  4 active torsions:
REMARK  status: ('A' for Active; 'I' for Inactive)
REMARK    1  A    between atoms: C_1  and  N_9 
REMARK    2  A    between atoms: N_5  and  C_6 
REMARK    3  A    between atoms: N_10  and  C_11 
REMARK    4  A    between atoms: C_15  and  C_17 
ROOT
HETATM    1  C           0       5.704  28.913  52.175  0.00  0.00     0.162 A 
HETATM    2  N           0       6.501  30.005  52.237  0.00  0.00    -0.198 NA
HETATM    3  N           0       5.272  31.210  50.561  0.00  0.00    -0.198 NA
HETATM    4  N           0       3.611  28.049  50.922  0.00  0.00    -0.236 NA
HETATM    5  N           0       3.386  29.943  49.707  0.00  0.00    -0.319 N 
HETATM    6  C           0       4.618  28.941  51.259  0.00  0.00     0.150 A 
HETATM    7  C           0       4.490  30.121  50.508  0.00  0.00     0.167 A 
HETATM    8  C           0       2.915  28.678  50.005  0.00  0.00     0.212 A 
HETATM    9  C           0       6.233  31.043  51.455  0.00  0.00     0.227 A 
HETATM   10 Cl           0       7.337  32.408  51.637  0.00  0.00    -0.041 Cl
ENDROOT
BRANCH   1  11
HETATM   11  N           0       5.998  27.864  52.989  0.00  0.00    -0.361 N 
HETATM   12  C           0       7.383  27.469  53.241  0.00  0.00     0.144 C 
HETATM   13  C           0       7.620  27.240  54.734  0.00  0.00     0.144 C 
HETATM   14  N           0       6.644  26.295  55.273  0.00  0.00    -0.363 N 
HETATM   15  C           0       5.551  25.891  54.390  0.00  0.00     0.144 C 
HETATM   16  C           0       4.947  27.099  53.679  0.00  0.00     0.144 C 
BRANCH  14  17
HETATM   17  C           0       6.734  25.841  56.565  0.00  0.00     0.125 A 
HETATM   18  C           0       5.747  24.981  57.118  0.00  0.00     0.051 A 
HETATM   19  C           0       5.889  24.567  58.429  0.00  0.00     0.021 A 
HETATM   20  C           0       6.994  24.992  59.179  0.00  0.00     0.065 A 
HETATM   21  C           0       7.916  25.826  58.545  0.00  0.00     0.135 A 
HETATM   22  N           0       7.801  26.243  57.286  0.00  0.00    -0.243 NA
BRANCH  20  23
HETATM   23  C           0       7.146  24.607  60.614  0.00  0.00     0.418 C 
HETATM   24  F           0       8.292  23.916  60.828  0.00  0.00    -0.166 F 
HETATM   25  F           0       6.137  23.809  61.045  0.00  0.00    -0.166 F 
HETATM   26  F           0       7.163  25.685  61.430  0.00  0.00    -0.166 F 
ENDBRANCH  20  23
ENDBRANCH  14  17
ENDBRANCH   1  11
BRANCH   5  27
HETATM   27  C           0       2.904  30.925  48.719  0.00  0.00     0.092 C 
HETATM   28  C           0       2.093  30.253  47.593  0.00  0.00     0.026 C 
HETATM   29  C           0       0.680  30.105  48.185  0.00  0.00     0.002 C 
HETATM   30  C           0       0.480  31.380  49.045  0.00  0.00     0.002 C 
HETATM   31  C           0       1.908  31.936  49.330  0.00  0.00     0.026 C 
ENDBRANCH   5  27
TORSDOF 4
ENDMDL
MODEL 2
REMARK VINA RESULT:      -8.9      5.848     10.248
REMARK  4 active torsions:
REMARK  status: ('A' for Active; 'I' for Inactive)
REMARK    1  A    between atoms: C_1  and  N_9 
REMARK    2  A    between atoms: N_5  and  C_6 
REMARK    3  A    between atoms: N_10  and  C_11 
REMARK    4  A    between atoms: C_15  and  C_17 
ROOT
HETATM    1  C           0       5.485  28.224  51.214  0.00  0.00     0.162 A 
HETATM    2  N           0       6.162  27.498  50.293  0.00  0.00    -0.198 NA
HETATM    3  N           0       6.873  25.836  51.876  0.00  0.00    -0.198 NA
HETATM    4  N           0       4.920  28.201  53.739  0.00  0.00    -0.236 NA
HETATM    5  N           0       6.061  26.287  54.119  0.00  0.00    -0.319 N 
HETATM    6  C           0       5.484  27.753  52.555  0.00  0.00     0.150 A 
HETATM    7  C           0       6.199  26.565  52.779  0.00  0.00     0.167 A 
HETATM    8  C           0       5.288  27.312  54.629  0.00  0.00     0.212 A 
HETATM    9  C           0       6.783  26.390  50.677  0.00  0.00     0.227 A 
HETATM   10 Cl           0       7.620  25.528  49.384  0.00  0.00    -0.041 Cl
ENDROOT
BRANCH   1  11
HETATM   11  N           0       4.855  29.353  50.794  0.00  0.00    -0.361 N 
HETATM   12  C           0       4.559  29.573  49.379  0.00  0.00     0.144 C 
HETATM   13  C           0       3.119  30.049  49.191  0.00  0.00     0.144 C 
HETATM   14  N           0       2.850  31.220  50.024  0.00  0.00    -0.363 N 
HETATM   15  C           0       3.884  31.608  50.981  0.00  0.00     0.144 C 
HETATM   16  C           0       4.411  30.391  51.739  0.00  0.00     0.144 C 
BRANCH  14  17
HETATM   17  C           0       1.661  31.899  49.931  0.00  0.00     0.125 A 
HETATM   18  C           0       0.884  31.873  48.742  0.00  0.00     0.051 A 
HETATM   19  C           0      -0.299  32.587  48.708  0.00  0.00     0.021 A 
HETATM   20  C           0      -0.710  33.309  49.836  0.00  0.00     0.065 A 
HETATM   21  C           0       0.113  33.263  50.961  0.00  0.00     0.135 A 
HETATM   22  N           0       1.259  32.589  51.019  0.00  0.00    -0.243 NA
BRANCH  20  23
HETATM   23  C           0      -1.956  34.135  49.812  0.00  0.00     0.418 C 
HETATM   24  F           0      -2.553  34.102  48.596  0.00  0.00    -0.166 F 
HETATM   25  F           0      -1.714  35.442  50.081  0.00  0.00    -0.166 F 
HETATM   26  F           0      -2.862  33.712  50.722  0.00  0.00    -0.166 F 
ENDBRANCH  20  23
ENDBRANCH  14  17
ENDBRANCH   1  11
BRANCH   5  27
HETATM   27  C           0       6.689  25.142  54.802  0.00  0.00     0.092 C 
HETATM   28  C           0       8.054  25.519  55.412  0.00  0.00     0.026 C 
HETATM   29  C           0       7.697  26.170  56.759  0.00  0.00     0.002 C 
HETATM   30  C           0       6.472  25.367  57.270  0.00  0.00     0.002 C 
HETATM   31  C           0       5.869  24.659  56.019  0.00  0.00     0.026 C 
ENDBRANCH   5  27
TORSDOF 4
ENDMDL
MODEL 3
REMARK VINA RESULT:      -8.3      4.793      7.690
REMARK  4 active torsions:
REMARK  status: ('A' for Active; 'I' for Inactive)
REMARK    1  A    between atoms: C_1  and  N_9 
REMARK    2  A    between atoms: N_5  and  C_6 
REMARK    3  A    between atoms: N_10  and  C_11 
REMARK    4  A    between atoms: C_15  and  C_17 
ROOT
HETATM    1  C           0       0.056  31.782  48.375  0.00  0.00     0.162 A 
HETATM    2  N           0      -0.763  31.552  47.321  0.00  0.00    -0.198 NA
HETATM    3  N           0      -2.191  33.423  47.803  0.00  0.00    -0.198 NA
HETATM    4  N           0       0.344  33.436  50.343  0.00  0.00    -0.236 NA
HETATM    5  N           0      -1.470  34.656  49.766  0.00  0.00    -0.319 N 
HETATM    6  C           0      -0.242  32.891  49.211  0.00  0.00     0.150 A 
HETATM    7  C           0      -1.373  33.639  48.844  0.00  0.00     0.167 A 
HETATM    8  C           0      -0.412  34.467  50.635  0.00  0.00     0.212 A 
HETATM    9  C           0      -1.791  32.365  47.115  0.00  0.00     0.227 A 
HETATM   10 Cl           0      -2.776  31.967  45.706  0.00  0.00    -0.041 Cl
ENDROOT
BRANCH   1  11
HETATM   11  N           0       1.103  30.936  48.561  0.00  0.00    -0.361 N 
HETATM   12  C           0       2.475  31.357  48.279  0.00  0.00     0.144 C 
HETATM   13  C           0       3.410  30.966  49.423  0.00  0.00     0.144 C 
HETATM   14  N           0       3.296  29.539  49.719  0.00  0.00    -0.363 N 
HETATM   15  C           0       2.233  28.801  49.038  0.00  0.00     0.144 C 
HETATM   16  C           0       0.916  29.572  49.084  0.00  0.00     0.144 C 
BRANCH  14  17
HETATM   17  C           0       4.128  28.933  50.626  0.00  0.00     0.125 A 
HETATM   18  C           0       4.705  29.659  51.703  0.00  0.00     0.051 A 
HETATM   19  C           0       5.545  28.993  52.576  0.00  0.00     0.021 A 
HETATM   20  C           0       5.805  27.629  52.390  0.00  0.00     0.065 A 
HETATM   21  C           0       5.183  27.000  51.311  0.00  0.00     0.135 A 
HETATM   22  N           0       4.374  27.618  50.453  0.00  0.00    -0.243 NA
BRANCH  20  23
HETATM   23  C           0       6.751  26.895  53.284  0.00  0.00     0.418 C 
HETATM   24  F           0       7.642  27.735  53.865  0.00  0.00    -0.166 F 
HETATM   25  F           0       7.483  25.970  52.614  0.00  0.00    -0.166 F 
HETATM   26  F           0       6.106  26.237  54.274  0.00  0.00    -0.166 F 
ENDBRANCH  20  23
ENDBRANCH  14  17
ENDBRANCH   1  11
BRANCH   5  27
HETATM   27  C           0      -2.545  35.664  49.786  0.00  0.00     0.092 C 
HETATM   28  C           0      -2.194  36.856  50.699  0.00  0.00     0.026 C 
HETATM   29  C           0      -1.316  37.760  49.816  0.00  0.00     0.002 C 
HETATM   30  C           0      -1.926  37.632  48.395  0.00  0.00     0.002 C 
HETATM   31  C           0      -2.765  36.319  48.403  0.00  0.00     0.026 C 
ENDBRANCH   5  27
TORSDOF 4
ENDMDL
MODEL 4
REMARK VINA RESULT:      -7.9      1.837      2.205
REMARK  4 active torsions:
REMARK  status: ('A' for Active; 'I' for Inactive)
REMARK    1  A    between atoms: C_1  and  N_9 
REMARK    2  A    between atoms: N_5  and  C_6 
REMARK    3  A    between atoms: N_10  and  C_11 
REMARK    4  A    between atoms: C_15  and  C_17 
ROOT
HETATM    1  C           0       5.248  27.263  52.067  0.00  0.00     0.162 A 
HETATM    2  N           0       6.326  26.925  51.320  0.00  0.00    -0.198 NA
HETATM    3  N           0       5.802  28.467  49.554  0.00  0.00    -0.198 NA
HETATM    4  N           0       3.213  28.861  52.008  0.00  0.00    -0.236 NA
HETATM    5  N           0       3.780  29.734  50.001  0.00  0.00    -0.319 N 
HETATM    6  C           0       4.377  28.260  51.552  0.00  0.00     0.150 A 
HETATM    7  C           0       4.737  28.793  50.303  0.00  0.00     0.167 A 
HETATM    8  C           0       2.898  29.715  51.065  0.00  0.00     0.212 A 
HETATM    9  C           0       6.521  27.534  50.158  0.00  0.00     0.227 A 
HETATM   10 Cl           0       7.964  27.013  49.284  0.00  0.00    -0.041 Cl
ENDROOT
BRANCH   1  11
HETATM   11  N           0       5.073  26.626  53.255  0.00  0.00    -0.361 N 
HETATM   12  C           0       5.323  25.192  53.388  0.00  0.00     0.144 C 
HETATM   13  C           0       6.154  24.897  54.636  0.00  0.00     0.144 C 
HETATM   14  N           0       5.534  25.486  55.821  0.00  0.00    -0.363 N 
HETATM   15  C           0       4.386  26.364  55.604  0.00  0.00     0.144 C 
HETATM   16  C           0       4.657  27.349  54.468  0.00  0.00     0.144 C 
BRANCH  14  17
HETATM   17  C           0       6.035  25.249  57.076  0.00  0.00     0.125 A 
HETATM   18  C           0       7.316  25.726  57.465  0.00  0.00     0.051 A 
HETATM   19  C           0       7.768  25.444  58.740  0.00  0.00     0.021 A 
HETATM   20  C           0       6.963  24.709  59.620  0.00  0.00     0.065 A 
HETATM   21  C           0       5.715  24.296  59.152  0.00  0.00     0.135 A 
HETATM   22  N           0       5.257  24.548  57.928  0.00  0.00    -0.243 NA
BRANCH  20  23
HETATM   23  C           0       7.447  24.342  60.985  0.00  0.00     0.418 C 
HETATM   24  F           0       6.596  23.489  61.604  0.00  0.00    -0.166 F 
HETATM   25  F           0       7.563  25.421  61.799  0.00  0.00    -0.166 F 
HETATM   26  F           0       8.663  23.751  60.950  0.00  0.00    -0.166 F 
ENDBRANCH  20  23
ENDBRANCH  14  17
ENDBRANCH   1  11
BRANCH   5  27
HETATM   27  C           0       3.744  30.516  48.753  0.00  0.00     0.092 C 
HETATM   28  C           0       2.922  29.807  47.657  0.00  0.00     0.026 C 
HETATM   29  C           0       1.465  30.185  47.976  0.00  0.00     0.002 C 
HETATM   30  C           0       1.543  31.646  48.491  0.00  0.00     0.002 C 
HETATM   31  C           0       3.022  31.872  48.927  0.00  0.00     0.026 C 
ENDBRANCH   5  27
TORSDOF 4
ENDMDL
MODEL 5
REMARK VINA RESULT:      -7.9      2.126      2.837
REMARK  4 active torsions:
REMARK  status: ('A' for Active; 'I' for Inactive)
REMARK    1  A    between atoms: C_1  and  N_9 
REMARK    2  A    between atoms: N_5  and  C_6 
REMARK    3  A    between atoms: N_10  and  C_11 
REMARK    4  A    between atoms: C_15  and  C_17 
ROOT
HETATM    1  C           0       6.939  27.053  52.357  0.00  0.00     0.162 A 
HETATM    2  N           0       7.320  26.379  51.246  0.00  0.00    -0.198 NA
HETATM    3  N           0       6.373  27.988  49.735  0.00  0.00    -0.198 NA
HETATM    4  N           0       5.695  29.218  53.037  0.00  0.00    -0.236 NA
HETATM    5  N           0       5.320  29.841  50.897  0.00  0.00    -0.319 N 
HETATM    6  C           0       6.230  28.271  52.177  0.00  0.00     0.150 A 
HETATM    7  C           0       6.000  28.647  50.843  0.00  0.00     0.167 A 
HETATM    8  C           0       5.169  30.118  52.242  0.00  0.00     0.212 A 
HETATM    9  C           0       7.024  26.881  50.055  0.00  0.00     0.227 A 
HETATM   10 Cl           0       7.583  25.915  48.687  0.00  0.00    -0.041 Cl
ENDROOT
BRANCH   1  11
HETATM   11  N           0       7.257  26.518  53.565  0.00  0.00    -0.361 N 
HETATM   12  C           0       7.813  27.346  54.635  0.00  0.00     0.144 C 
HETATM   13  C           0       7.104  27.069  55.961  0.00  0.00     0.144 C 
HETATM   14  N           0       7.124  25.641  56.269  0.00  0.00    -0.363 N 
HETATM   15  C           0       7.626  24.743  55.230  0.00  0.00     0.144 C 
HETATM   16  C           0       7.031  25.095  53.868  0.00  0.00     0.144 C 
BRANCH  14  17
HETATM   17  C           0       6.656  25.166  57.468  0.00  0.00     0.125 A 
HETATM   18  C           0       7.423  25.278  58.659  0.00  0.00     0.051 A 
HETATM   19  C           0       6.901  24.769  59.833  0.00  0.00     0.021 A 
HETATM   20  C           0       5.636  24.167  59.831  0.00  0.00     0.065 A 
HETATM   21  C           0       4.954  24.116  58.616  0.00  0.00     0.135 A 
HETATM   22  N           0       5.435  24.592  57.469  0.00  0.00    -0.243 NA
BRANCH  20  23
HETATM   23  C           0       5.069  23.560  61.073  0.00  0.00     0.418 C 
HETATM   24  F           0       6.040  23.242  61.962  0.00  0.00    -0.166 F 
HETATM   25  F           0       4.392  22.411  60.823  0.00  0.00    -0.166 F 
HETATM   26  F           0       4.204  24.393  61.695  0.00  0.00    -0.166 F 
ENDBRANCH  20  23
ENDBRANCH  14  17
ENDBRANCH   1  11
BRANCH   5  27
HETATM   27  C           0       4.838  30.580  49.717  0.00  0.00     0.092 C 
HETATM   28  C           0       3.788  29.773  48.926  0.00  0.00     0.026 C 
HETATM   29  C           0       2.469  30.039  49.673  0.00  0.00     0.002 C 
HETATM   30  C           0       2.570  31.516  50.135  0.00  0.00     0.002 C 
HETATM   31  C           0       4.087  31.876  50.098  0.00  0.00     0.026 C 
ENDBRANCH   5  27
TORSDOF 4
ENDMDL
MODEL 6
REMARK VINA RESULT:      -7.8      2.253      3.371
REMARK  4 active torsions:
REMARK  status: ('A' for Active; 'I' for Inactive)
REMARK    1  A    between atoms: C_1  and  N_9 
REMARK    2  A    between atoms: N_5  and  C_6 
REMARK    3  A    between atoms: N_10  and  C_11 
REMARK    4  A    between atoms: C_15  and  C_17 
ROOT
HETATM    1  C           0       4.892  27.543  52.371  0.00  0.00     0.162 A 
HETATM    2  N           0       3.734  27.456  51.677  0.00  0.00    -0.198 NA
HETATM    3  N           0       4.145  29.451  50.404  0.00  0.00    -0.198 NA
HETATM    4  N           0       6.982  29.058  52.567  0.00  0.00    -0.236 NA
HETATM    5  N           0       6.261  30.494  50.976  0.00  0.00    -0.319 N 
HETATM    6  C           0       5.750  28.641  52.087  0.00  0.00     0.150 A 
HETATM    7  C           0       5.290  29.528  51.100  0.00  0.00     0.167 A 
HETATM    8  C           0       7.240  30.150  51.889  0.00  0.00     0.212 A 
HETATM    9  C           0       3.455  28.383  50.770  0.00  0.00     0.227 A 
HETATM   10 Cl           0       1.922  28.152  49.926  0.00  0.00    -0.041 Cl
ENDROOT
BRANCH   1  11
HETATM   11  N           0       5.156  26.579  53.292  0.00  0.00    -0.361 N 
HETATM   12  C           0       6.459  25.919  53.344  0.00  0.00     0.144 C 
HETATM   13  C           0       6.978  25.851  54.780  0.00  0.00     0.144 C 
HETATM   14  N           0       5.986  25.237  55.660  0.00  0.00    -0.363 N 
HETATM   15  C           0       4.666  24.972  55.092  0.00  0.00     0.144 C 
HETATM   16  C           0       4.160  26.176  54.300  0.00  0.00     0.144 C 
BRANCH  14  17
HETATM   17  C           0       6.277  24.957  56.972  0.00  0.00     0.125 A 
HETATM   18  C           0       5.322  24.345  57.828  0.00  0.00     0.051 A 
HETATM   19  C           0       5.673  24.101  59.142  0.00  0.00     0.021 A 
HETATM   20  C           0       6.950  24.449  59.601  0.00  0.00     0.065 A 
HETATM   21  C           0       7.822  25.034  58.682  0.00  0.00     0.135 A 
HETATM   22  N           0       7.509  25.286  57.413  0.00  0.00    -0.243 NA
BRANCH  20  23
HETATM   23  C           0       7.338  24.247  61.029  0.00  0.00     0.418 C 
HETATM   24  F           0       6.411  23.523  61.701  0.00  0.00    -0.166 F 
HETATM   25  F           0       7.464  25.419  61.701  0.00  0.00    -0.166 F 
HETATM   26  F           0       8.522  23.604  61.147  0.00  0.00    -0.166 F 
ENDBRANCH  20  23
ENDBRANCH  14  17
ENDBRANCH   1  11
BRANCH   5  27
HETATM   27  C           0       6.173  31.655  50.073  0.00  0.00     0.092 C 
HETATM   28  C           0       5.164  32.703  50.587  0.00  0.00     0.026 C 
HETATM   29  C           0       5.964  33.521  51.615  0.00  0.00     0.002 C 
HETATM   30  C           0       7.397  33.601  51.025  0.00  0.00     0.002 C 
HETATM   31  C           0       7.501  32.441  49.989  0.00  0.00     0.026 C 
ENDBRANCH   5  27
TORSDOF 4
ENDMDL
MODEL 7
REMARK VINA RESULT:      -7.5      1.905      2.600
REMARK  4 active torsions:
REMARK  status: ('A' for Active; 'I' for Inactive)
REMARK    1  A    between atoms: C_1  and  N_9 
REMARK    2  A    between atoms: N_5  and  C_6 
REMARK    3  A    between atoms: N_10  and  C_11 
REMARK    4  A    between atoms: C_15  and  C_17 
ROOT
HETATM    1  C           0       4.144  27.537  52.026  0.00  0.00     0.162 A 
HETATM    2  N           0       2.833  27.198  52.009  0.00  0.00    -0.198 NA
HETATM    3  N           0       2.270  28.780  50.291  0.00  0.00    -0.198 NA
HETATM    4  N           0       5.794  29.154  50.859  0.00  0.00    -0.236 NA
HETATM    5  N           0       4.196  30.051  49.535  0.00  0.00    -0.319 N 
HETATM    6  C           0       4.573  28.555  51.133  0.00  0.00     0.150 A 
HETATM    7  C           0       3.571  29.107  50.318  0.00  0.00     0.167 A 
HETATM    8  C           0       5.523  30.027  49.919  0.00  0.00     0.212 A 
HETATM    9  C           0       2.019  27.821  51.167  0.00  0.00     0.227 A 
HETATM   10 Cl           0       0.338  27.284  51.233  0.00  0.00    -0.041 Cl
ENDROOT
BRANCH   1  11
HETATM   11  N           0       4.958  26.881  52.895  0.00  0.00    -0.361 N 
HETATM   12  C           0       6.279  27.408  53.237  0.00  0.00     0.144 C 
HETATM   13  C           0       6.506  27.368  54.748  0.00  0.00     0.144 C 
HETATM   14  N           0       6.268  26.024  55.271  0.00  0.00    -0.363 N 
HETATM   15  C           0       5.707  25.040  54.347  0.00  0.00     0.144 C 
HETATM   16  C           0       4.542  25.634  53.558  0.00  0.00     0.144 C 
BRANCH  14  17
HETATM   17  C           0       6.529  25.716  56.583  0.00  0.00     0.125 A 
HETATM   18  C           0       7.690  26.204  57.242  0.00  0.00     0.051 A 
HETATM   19  C           0       7.901  25.848  58.560  0.00  0.00     0.021 A 
HETATM   20  C           0       6.975  25.028  59.219  0.00  0.00     0.065 A 
HETATM   21  C           0       5.861  24.609  58.492  0.00  0.00     0.135 A 
HETATM   22  N           0       5.635  24.932  57.221  0.00  0.00    -0.243 NA
BRANCH  20  23
HETATM   23  C           0       7.205  24.582  60.626  0.00  0.00     0.418 C 
HETATM   24  F           0       7.324  25.634  61.471  0.00  0.00    -0.166 F 
HETATM   25  F           0       8.344  23.857  60.759  0.00  0.00    -0.166 F 
HETATM   26  F           0       6.196  23.806  61.083  0.00  0.00    -0.166 F 
ENDBRANCH  20  23
ENDBRANCH  14  17
ENDBRANCH   1  11
BRANCH   5  27
HETATM   27  C           0       3.508  30.909  48.555  0.00  0.00     0.092 C 
HETATM   28  C           0       2.864  30.082  47.424  0.00  0.00     0.026 C 
HETATM   29  C           0       1.520  29.621  48.014  0.00  0.00     0.002 C 
HETATM   30  C           0       1.043  30.814  48.884  0.00  0.00     0.002 C 
HETATM   31  C           0       2.313  31.671  49.173  0.00  0.00     0.026 C 
ENDBRANCH   5  27
TORSDOF 4
ENDMDL
MODEL 8
REMARK VINA RESULT:      -7.4     13.980     17.038
REMARK  4 active torsions:
REMARK  status: ('A' for Active; 'I' for Inactive)
REMARK    1  A    between atoms: C_1  and  N_9 
REMARK    2  A    between atoms: N_5  and  C_6 
REMARK    3  A    between atoms: N_10  and  C_11 
REMARK    4  A    between atoms: C_15  and  C_17 
ROOT
HETATM    1  C           0       9.780  32.931  68.585  0.00  0.00     0.162 A 
HETATM    2  N           0      10.411  32.865  69.780  0.00  0.00    -0.198 NA
HETATM    3  N           0      12.097  31.342  69.001  0.00  0.00    -0.198 NA
HETATM    4  N           0       9.967  31.982  66.185  0.00  0.00    -0.236 NA
HETATM    5  N           0      11.815  30.769  66.658  0.00  0.00    -0.319 N 
HETATM    6  C           0      10.316  32.166  67.514  0.00  0.00     0.150 A 
HETATM    7  C           0      11.462  31.414  67.821  0.00  0.00     0.167 A 
HETATM    8  C           0      10.872  31.153  65.724  0.00  0.00     0.212 A 
HETATM    9  C           0      11.492  32.104  69.897  0.00  0.00     0.227 A 
HETATM   10 Cl           0      12.230  32.110  71.501  0.00  0.00    -0.041 Cl
ENDROOT
BRANCH   1  11
HETATM   11  N           0       8.677  33.720  68.491  0.00  0.00    -0.361 N 
HETATM   12  C           0       8.792  35.147  68.191  0.00  0.00     0.144 C 
HETATM   13  C           0       7.795  35.557  67.108  0.00  0.00     0.144 C 
HETATM   14  N           0       6.439  35.153  67.473  0.00  0.00    -0.363 N 
HETATM   15  C           0       6.293  34.309  68.658  0.00  0.00     0.144 C 
HETATM   16  C           0       7.318  33.177  68.653  0.00  0.00     0.144 C 
BRANCH  14  17
HETATM   17  C           0       5.358  35.522  66.712  0.00  0.00     0.125 A 
HETATM   18  C           0       4.046  35.554  67.255  0.00  0.00     0.051 A 
HETATM   19  C           0       2.998  35.923  66.433  0.00  0.00     0.021 A 
HETATM   20  C           0       3.246  36.263  65.097  0.00  0.00     0.065 A 
HETATM   21  C           0       4.569  36.214  64.659  0.00  0.00     0.135 A 
HETATM   22  N           0       5.596  35.857  65.427  0.00  0.00    -0.243 NA
BRANCH  20  23
HETATM   23  C           0       2.127  36.614  64.170  0.00  0.00     0.418 C 
HETATM   24  F           0       1.719  35.540  63.452  0.00  0.00    -0.166 F 
HETATM   25  F           0       2.482  37.562  63.267  0.00  0.00    -0.166 F 
HETATM   26  F           0       1.051  37.093  64.833  0.00  0.00    -0.166 F 
ENDBRANCH  20  23
ENDBRANCH  14  17
ENDBRANCH   1  11
BRANCH   5  27
HETATM   27  C           0      12.947  29.834  66.534  0.00  0.00     0.092 C 
HETATM   28  C           0      12.611  28.449  67.123  0.00  0.00     0.026 C 
HETATM   29  C           0      11.852  27.734  65.991  0.00  0.00     0.002 C 
HETATM   30  C           0      12.546  28.213  64.689  0.00  0.00     0.002 C 
HETATM   31  C           0      13.300  29.526  65.061  0.00  0.00     0.026 C 
ENDBRANCH   5  27
TORSDOF 4
ENDMDL
MODEL 9
REMARK VINA RESULT:      -7.2     14.002     16.822
REMARK  4 active torsions:
REMARK  status: ('A' for Active; 'I' for Inactive)
REMARK    1  A    between atoms: C_1  and  N_9 
REMARK    2  A    between atoms: N_5  and  C_6 
REMARK    3  A    between atoms: N_10  and  C_11 
REMARK    4  A    between atoms: C_15  and  C_17 
ROOT
HETATM    1  C           0       8.830  31.271  68.703  0.00  0.00     0.162 A 
HETATM    2  N           0       9.001  30.590  69.861  0.00  0.00    -0.198 NA
HETATM    3  N           0      10.839  29.288  69.025  0.00  0.00    -0.198 NA
HETATM    4  N           0       9.840  31.432  66.326  0.00  0.00    -0.236 NA
HETATM    5  N           0      11.392  29.838  66.726  0.00  0.00    -0.319 N 
HETATM    6  C           0       9.701  30.963  67.623  0.00  0.00     0.150 A 
HETATM    7  C           0      10.659  29.969  67.883  0.00  0.00     0.167 A 
HETATM    8  C           0      10.841  30.741  65.837  0.00  0.00     0.212 A 
HETATM    9  C           0       9.964  29.681  69.937  0.00  0.00     0.227 A 
HETATM   10 Cl           0      10.092  28.871  71.500  0.00  0.00    -0.041 Cl
ENDROOT
BRANCH   1  11
HETATM   11  N           0       7.838  32.199  68.652  0.00  0.00    -0.361 N 
HETATM   12  C           0       8.139  33.630  68.677  0.00  0.00     0.144 C 
HETATM   13  C           0       7.351  34.371  67.597  0.00  0.00     0.144 C 
HETATM   14  N           0       5.923  34.081  67.709  0.00  0.00    -0.363 N 
HETATM   15  C           0       5.527  33.046  68.662  0.00  0.00     0.144 C 
HETATM   16  C           0       6.422  31.815  68.536  0.00  0.00     0.144 C 
BRANCH  14  17
HETATM   17  C           0       5.004  34.729  66.924  0.00  0.00     0.125 A 
HETATM   18  C           0       3.659  34.905  67.349  0.00  0.00     0.051 A 
HETATM   19  C           0       2.778  35.556  66.506  0.00  0.00     0.021 A 
HETATM   20  C           0       3.222  36.033  65.266  0.00  0.00     0.065 A 
HETATM   21  C           0       4.563  35.824  64.943  0.00  0.00     0.135 A 
HETATM   22  N           0       5.431  35.196  65.732  0.00  0.00    -0.243 NA
BRANCH  20  23
HETATM   23  C           0       2.281  36.693  64.312  0.00  0.00     0.418 C 
HETATM   24  F           0       1.200  37.205  64.949  0.00  0.00    -0.166 F 
HETATM   25  F           0       1.799  35.830  63.382  0.00  0.00    -0.166 F 
HETATM   26  F           0       2.870  37.704  63.634  0.00  0.00    -0.166 F 
ENDBRANCH  20  23
ENDBRANCH  14  17
ENDBRANCH   1  11
BRANCH   5  27
HETATM   27  C           0      12.487  28.869  66.537  0.00  0.00     0.092 C 
HETATM   28  C           0      12.282  28.015  65.270  0.00  0.00     0.026 C 
HETATM   29  C           0      12.822  28.897  64.131  0.00  0.00     0.002 C 
HETATM   30  C           0      14.038  29.636  64.750  0.00  0.00     0.002 C 
HETATM   31  C           0      13.849  29.557  66.295  0.00  0.00     0.026 C 
ENDBRANCH   5  27
TORSDOF 4
ENDMDL
MODEL 10
REMARK VINA RESULT:      -7.2      5.318     10.163
REMARK  4 active torsions:
REMARK  status: ('A' for Active; 'I' for Inactive)
REMARK    1  A    between atoms: C_1  and  N_9 
REMARK    2  A    between atoms: N_5  and  C_6 
REMARK    3  A    between atoms: N_10  and  C_11 
REMARK    4  A    between atoms: C_15  and  C_17 
ROOT
HETATM    1  C           0       6.689  26.407  54.639  0.00  0.00     0.162 A 
HETATM    2  N           0       7.907  26.983  54.771  0.00  0.00    -0.198 NA
HETATM    3  N           0       8.281  26.093  56.971  0.00  0.00    -0.198 NA
HETATM    4  N           0       5.056  24.890  55.954  0.00  0.00    -0.236 NA
HETATM    5  N           0       6.430  24.724  57.742  0.00  0.00    -0.319 N 
HETATM    6  C           0       6.211  25.620  55.722  0.00  0.00     0.150 A 
HETATM    7  C           0       7.072  25.528  56.829  0.00  0.00     0.167 A 
HETATM    8  C           0       5.228  24.385  57.152  0.00  0.00     0.212 A 
HETATM    9  C           0       8.594  26.788  55.889  0.00  0.00     0.227 A 
HETATM   10 Cl           0      10.169  27.583  55.936  0.00  0.00    -0.041 Cl
ENDROOT
BRANCH   1  11
HETATM   11  N           0       6.007  26.621  53.483  0.00  0.00    -0.361 N 
HETATM   12  C           0       4.623  26.175  53.328  0.00  0.00     0.144 C 
HETATM   13  C           0       3.759  27.281  52.724  0.00  0.00     0.144 C 
HETATM   14  N           0       4.347  27.776  51.481  0.00  0.00    -0.363 N 
HETATM   15  C           0       5.681  27.288  51.137  0.00  0.00     0.144 C 
HETATM   16  C           0       6.611  27.337  52.347  0.00  0.00     0.144 C 
BRANCH  14  17
HETATM   17  C           0       3.685  28.686  50.696  0.00  0.00     0.125 A 
HETATM   18  C           0       3.695  30.074  51.001  0.00  0.00     0.051 A 
HETATM   19  C           0       2.999  30.938  50.176  0.00  0.00     0.021 A 
HETATM   20  C           0       2.311  30.437  49.063  0.00  0.00     0.065 A 
HETATM   21  C           0       2.370  29.062  48.839  0.00  0.00     0.135 A 
HETATM   22  N           0       3.027  28.207  49.619  0.00  0.00    -0.243 NA
BRANCH  20  23
HETATM   23  C           0       1.505  31.339  48.186  0.00  0.00     0.418 C 
HETATM   24  F           0       2.225  31.779  47.126  0.00  0.00    -0.166 F 
HETATM   25  F           0       1.076  32.447  48.840  0.00  0.00    -0.166 F 
HETATM   26  F           0       0.403  30.723  47.701  0.00  0.00    -0.166 F 
ENDBRANCH  20  23
ENDBRANCH  14  17
ENDBRANCH   1  11
BRANCH   5  27
HETATM   27  C           0       6.959  24.390  59.076  0.00  0.00     0.092 C 
HETATM   28  C           0       6.732  25.534  60.085  0.00  0.00     0.026 C 
HETATM   29  C           0       5.287  25.326  60.569  0.00  0.00     0.002 C 
HETATM   30  C           0       5.110  23.786  60.627  0.00  0.00     0.002 C 
HETATM   31  C           0       6.227  23.190  59.718  0.00  0.00     0.026 C 
ENDBRANCH   5  27
TORSDOF 4
ENDMDL
