MODEL 1
REMARK VINA RESULT:     -11.9      0.000      0.000
REMARK  4 active torsions:
REMARK  status: ('A' for Active; 'I' for Inactive)
REMARK    1  A    between atoms: C_1  and  N_9 
REMARK    2  A    between atoms: N_5  and  C_6 
REMARK    3  A    between atoms: N_10  and  C_11 
REMARK    4  A    between atoms: C_15  and  C_17 
ROOT
HETATM    1  C           0       5.702  28.939  52.147  0.00  0.00     0.162 A 
HETATM    2  N           0       6.503  30.028  52.210  0.00  0.00    -0.198 NA
HETATM    3  N           0       5.280  31.240  50.535  0.00  0.00    -0.198 NA
HETATM    4  N           0       3.606  28.086  50.892  0.00  0.00    -0.236 NA
HETATM    5  N           0       3.389  29.982  49.679  0.00  0.00    -0.319 N 
HETATM    6  C           0       4.616  28.973  51.231  0.00  0.00     0.150 A 
HETATM    7  C           0       4.494  30.154  50.481  0.00  0.00     0.167 A 
HETATM    8  C           0       2.913  28.719  49.976  0.00  0.00     0.212 A 
HETATM    9  C           0       6.241  31.068  51.429  0.00  0.00     0.227 A 
HETATM   10 Cl           0       7.351  32.428  51.612  0.00  0.00    -0.041 Cl
ENDROOT
BRANCH   1  11
HETATM   11  N           0       5.991  27.889  52.960  0.00  0.00    -0.361 N 
HETATM   12  C           0       7.374  27.485  53.211  0.00  0.00     0.144 C 
HETATM   13  C           0       7.612  27.254  54.703  0.00  0.00     0.144 C 
HETATM   14  N           0       6.630  26.316  55.244  0.00  0.00    -0.363 N 
HETATM   15  C           0       5.534  25.918  54.362  0.00  0.00     0.144 C 
HETATM   16  C           0       4.936  27.131  53.652  0.00  0.00     0.144 C 
BRANCH  14  17
HETATM   17  C           0       6.720  25.861  56.535  0.00  0.00     0.125 A 
HETATM   18  C           0       5.717  25.027  57.098  0.00  0.00     0.051 A 
HETATM   19  C           0       5.859  24.611  58.408  0.00  0.00     0.021 A 
HETATM   20  C           0       6.981  25.009  59.148  0.00  0.00     0.065 A 
HETATM   21  C           0       7.918  25.817  58.505  0.00  0.00     0.135 A 
HETATM   22  N           0       7.803  26.237  57.247  0.00  0.00    -0.243 NA
BRANCH  20  23
HETATM   23  C           0       7.135  24.621  60.583  0.00  0.00     0.418 C 
HETATM   24  F           0       8.291  23.946  60.796  0.00  0.00    -0.166 F 
HETATM   25  F           0       6.137  23.807  61.008  0.00  0.00    -0.166 F 
HETATM   26  F           0       7.135  25.697  61.402  0.00  0.00    -0.166 F 
ENDBRANCH  20  23
ENDBRANCH  14  17
ENDBRANCH   1  11
BRANCH   5  27
HETATM   27  C           0       2.913  30.967  48.692  0.00  0.00     0.092 C 
HETATM   28  C           0       2.078  30.302  47.578  0.00  0.00     0.026 C 
HETATM   29  C           0       0.670  30.180  48.186  0.00  0.00     0.002 C 
HETATM   30  C           0       0.500  31.462  49.042  0.00  0.00     0.002 C 
HETATM   31  C           0       1.939  31.997  49.309  0.00  0.00     0.026 C 
ENDBRANCH   5  27
TORSDOF 4
ENDMDL
MODEL 2
REMARK VINA RESULT:     -11.7      0.501      1.096
REMARK  4 active torsions:
REMARK  status: ('A' for Active; 'I' for Inactive)
REMARK    1  A    between atoms: C_1  and  N_9 
REMARK    2  A    between atoms: N_5  and  C_6 
REMARK    3  A    between atoms: N_10  and  C_11 
REMARK    4  A    between atoms: C_15  and  C_17 
ROOT
HETATM    1  C           0       5.652  28.847  52.214  0.00  0.00     0.162 A 
HETATM    2  N           0       6.473  29.921  52.265  0.00  0.00    -0.198 NA
HETATM    3  N           0       5.290  31.123  50.554  0.00  0.00    -0.198 NA
HETATM    4  N           0       3.551  28.010  50.955  0.00  0.00    -0.236 NA
HETATM    5  N           0       3.383  29.885  49.703  0.00  0.00    -0.319 N 
HETATM    6  C           0       4.575  28.883  51.287  0.00  0.00     0.150 A 
HETATM    7  C           0       4.483  30.052  50.512  0.00  0.00     0.167 A 
HETATM    8  C           0       2.880  28.638  50.020  0.00  0.00     0.212 A 
HETATM    9  C           0       6.239  30.950  51.461  0.00  0.00     0.227 A 
HETATM   10 Cl           0       7.373  32.292  51.629  0.00  0.00    -0.041 Cl
ENDROOT
BRANCH   1  11
HETATM   11  N           0       5.912  27.807  53.050  0.00  0.00    -0.361 N 
HETATM   12  C           0       7.269  27.286  53.209  0.00  0.00     0.144 C 
HETATM   13  C           0       7.609  27.094  54.687  0.00  0.00     0.144 C 
HETATM   14  N           0       6.596  26.273  55.347  0.00  0.00    -0.363 N 
HETATM   15  C           0       5.399  25.944  54.575  0.00  0.00     0.144 C 
HETATM   16  C           0       4.854  27.178  53.859  0.00  0.00     0.144 C 
BRANCH  14  17
HETATM   17  C           0       6.751  25.863  56.647  0.00  0.00     0.125 A 
HETATM   18  C           0       7.871  26.268  57.423  0.00  0.00     0.051 A 
HETATM   19  C           0       7.975  25.811  58.723  0.00  0.00     0.021 A 
HETATM   20  C           0       6.984  24.972  59.250  0.00  0.00     0.065 A 
HETATM   21  C           0       5.917  24.640  58.416  0.00  0.00     0.135 A 
HETATM   22  N           0       5.794  25.061  57.159  0.00  0.00    -0.243 NA
BRANCH  20  23
HETATM   23  C           0       7.098  24.418  60.633  0.00  0.00     0.418 C 
HETATM   24  F           0       7.217  25.402  61.557  0.00  0.00    -0.166 F 
HETATM   25  F           0       8.187  23.623  60.783  0.00  0.00    -0.166 F 
HETATM   26  F           0       6.022  23.670  60.970  0.00  0.00    -0.166 F 
ENDBRANCH  20  23
ENDBRANCH  14  17
ENDBRANCH   1  11
BRANCH   5  27
HETATM   27  C           0       2.936  30.860  48.692  0.00  0.00     0.092 C 
HETATM   28  C           0       2.064  30.197  47.606  0.00  0.00     0.026 C 
HETATM   29  C           0       0.658  30.149  48.231  0.00  0.00     0.002 C 
HETATM   30  C           0       0.548  31.461  49.052  0.00  0.00     0.002 C 
HETATM   31  C           0       2.011  31.945  49.288  0.00  0.00     0.026 C 
ENDBRANCH   5  27
TORSDOF 4
ENDMDL
MODEL 3
REMARK VINA RESULT:      -9.0      5.845     10.239
REMARK  4 active torsions:
REMARK  status: ('A' for Active; 'I' for Inactive)
REMARK    1  A    between atoms: C_1  and  N_9 
REMARK    2  A    between atoms: N_5  and  C_6 
REMARK    3  A    between atoms: N_10  and  C_11 
REMARK    4  A    between atoms: C_15  and  C_17 
ROOT
HETATM    1  C           0       5.466  28.310  51.153  0.00  0.00     0.162 A 
HETATM    2  N           0       6.148  27.582  50.237  0.00  0.00    -0.198 NA
HETATM    3  N           0       6.864  25.931  51.829  0.00  0.00    -0.198 NA
HETATM    4  N           0       4.895  28.295  53.677  0.00  0.00    -0.236 NA
HETATM    5  N           0       6.045  26.388  54.068  0.00  0.00    -0.319 N 
HETATM    6  C           0       5.465  27.845  52.496  0.00  0.00     0.150 A 
HETATM    7  C           0       6.185  26.661  52.727  0.00  0.00     0.167 A 
HETATM    8  C           0       5.266  27.412  54.572  0.00  0.00     0.212 A 
HETATM    9  C           0       6.774  26.480  50.628  0.00  0.00     0.227 A 
HETATM   10 Cl           0       7.618  25.615  49.341  0.00  0.00    -0.041 Cl
ENDROOT
BRANCH   1  11
HETATM   11  N           0       4.831  29.433  50.726  0.00  0.00    -0.361 N 
HETATM   12  C           0       4.497  29.624  49.316  0.00  0.00     0.144 C 
HETATM   13  C           0       3.055  30.106  49.158  0.00  0.00     0.144 C 
HETATM   14  N           0       2.817  31.296  49.972  0.00  0.00    -0.363 N 
HETATM   15  C           0       3.880  31.698  50.891  0.00  0.00     0.144 C 
HETATM   16  C           0       4.421  30.495  51.661  0.00  0.00     0.144 C 
BRANCH  14  17
HETATM   17  C           0       1.630  31.981  49.898  0.00  0.00     0.125 A 
HETATM   18  C           0       0.865  32.011  48.701  0.00  0.00     0.051 A 
HETATM   19  C           0      -0.316  32.728  48.688  0.00  0.00     0.021 A 
HETATM   20  C           0      -0.738  33.399  49.843  0.00  0.00     0.065 A 
HETATM   21  C           0       0.074  33.301  50.973  0.00  0.00     0.135 A 
HETATM   22  N           0       1.218  32.622  51.012  0.00  0.00    -0.243 NA
BRANCH  20  23
HETATM   23  C           0      -1.982  34.228  49.843  0.00  0.00     0.418 C 
HETATM   24  F           0      -2.867  33.799  50.774  0.00  0.00    -0.166 F 
HETATM   25  F           0      -2.631  34.184  48.653  0.00  0.00    -0.166 F 
HETATM   26  F           0      -1.723  35.531  50.096  0.00  0.00    -0.166 F 
ENDBRANCH  20  23
ENDBRANCH  14  17
ENDBRANCH   1  11
BRANCH   5  27
HETATM   27  C           0       6.677  25.250  54.758  0.00  0.00     0.092 C 
HETATM   28  C           0       8.047  25.632  55.355  0.00  0.00     0.026 C 
HETATM   29  C           0       7.699  26.296  56.698  0.00  0.00     0.002 C 
HETATM   30  C           0       6.477  25.499  57.226  0.00  0.00     0.002 C 
HETATM   31  C           0       5.865  24.779  55.986  0.00  0.00     0.026 C 
ENDBRANCH   5  27
TORSDOF 4
ENDMDL
MODEL 4
REMARK VINA RESULT:      -8.3      4.770      7.646
REMARK  4 active torsions:
REMARK  status: ('A' for Active; 'I' for Inactive)
REMARK    1  A    between atoms: C_1  and  N_9 
REMARK    2  A    between atoms: N_5  and  C_6 
REMARK    3  A    between atoms: N_10  and  C_11 
REMARK    4  A    between atoms: C_15  and  C_17 
ROOT
HETATM    1  C           0       0.054  31.790  48.372  0.00  0.00     0.162 A 
HETATM    2  N           0      -0.762  31.564  47.316  0.00  0.00    -0.198 NA
HETATM    3  N           0      -2.190  33.435  47.798  0.00  0.00    -0.198 NA
HETATM    4  N           0       0.337  33.439  50.346  0.00  0.00    -0.236 NA
HETATM    5  N           0      -1.474  34.662  49.767  0.00  0.00    -0.319 N 
HETATM    6  C           0      -0.246  32.898  49.211  0.00  0.00     0.150 A 
HETATM    7  C           0      -1.375  33.648  48.842  0.00  0.00     0.167 A 
HETATM    8  C           0      -0.420  34.470  50.638  0.00  0.00     0.212 A 
HETATM    9  C           0      -1.788  32.379  47.109  0.00  0.00     0.227 A 
HETATM   10 Cl           0      -2.770  31.985  45.695  0.00  0.00    -0.041 Cl
ENDROOT
BRANCH   1  11
HETATM   11  N           0       1.100  30.943  48.560  0.00  0.00    -0.361 N 
HETATM   12  C           0       2.472  31.361  48.276  0.00  0.00     0.144 C 
HETATM   13  C           0       3.408  30.971  49.419  0.00  0.00     0.144 C 
HETATM   14  N           0       3.291  29.545  49.720  0.00  0.00    -0.363 N 
HETATM   15  C           0       2.226  28.808  49.042  0.00  0.00     0.144 C 
HETATM   16  C           0       0.910  29.581  49.087  0.00  0.00     0.144 C 
BRANCH  14  17
HETATM   17  C           0       4.123  28.940  50.627  0.00  0.00     0.125 A 
HETATM   18  C           0       4.695  29.666  51.707  0.00  0.00     0.051 A 
HETATM   19  C           0       5.535  29.001  52.580  0.00  0.00     0.021 A 
HETATM   20  C           0       5.800  27.638  52.393  0.00  0.00     0.065 A 
HETATM   21  C           0       5.182  27.009  51.312  0.00  0.00     0.135 A 
HETATM   22  N           0       4.373  27.626  50.453  0.00  0.00    -0.243 NA
BRANCH  20  23
HETATM   23  C           0       6.746  26.906  53.287  0.00  0.00     0.418 C 
HETATM   24  F           0       7.445  25.963  52.610  0.00  0.00    -0.166 F 
HETATM   25  F           0       6.108  26.256  54.293  0.00  0.00    -0.166 F 
HETATM   26  F           0       7.641  27.737  53.868  0.00  0.00    -0.166 F 
ENDBRANCH  20  23
ENDBRANCH  14  17
ENDBRANCH   1  11
BRANCH   5  27
HETATM   27  C           0      -2.548  35.671  49.786  0.00  0.00     0.092 C 
HETATM   28  C           0      -2.203  36.857  50.709  0.00  0.00     0.026 C 
HETATM   29  C           0      -1.318  37.766  49.838  0.00  0.00     0.002 C 
HETATM   30  C           0      -1.918  37.648  48.412  0.00  0.00     0.002 C 
HETATM   31  C           0      -2.758  36.335  48.406  0.00  0.00     0.026 C 
ENDBRANCH   5  27
TORSDOF 4
ENDMDL
MODEL 5
REMARK VINA RESULT:      -7.8      2.278      3.298
REMARK  4 active torsions:
REMARK  status: ('A' for Active; 'I' for Inactive)
REMARK    1  A    between atoms: C_1  and  N_9 
REMARK    2  A    between atoms: N_5  and  C_6 
REMARK    3  A    between atoms: N_10  and  C_11 
REMARK    4  A    between atoms: C_15  and  C_17 
ROOT
HETATM    1  C           0       4.926  27.513  52.350  0.00  0.00     0.162 A 
HETATM    2  N           0       3.773  27.409  51.648  0.00  0.00    -0.198 NA
HETATM    3  N           0       4.163  29.413  50.381  0.00  0.00    -0.198 NA
HETATM    4  N           0       6.992  29.057  52.560  0.00  0.00    -0.236 NA
HETATM    5  N           0       6.260  30.485  50.967  0.00  0.00    -0.319 N 
HETATM    6  C           0       5.769  28.623  52.072  0.00  0.00     0.150 A 
HETATM    7  C           0       5.302  29.505  51.083  0.00  0.00     0.167 A 
HETATM    8  C           0       7.238  30.154  51.885  0.00  0.00     0.212 A 
HETATM    9  C           0       3.486  28.334  50.741  0.00  0.00     0.227 A 
HETATM   10 Cl           0       1.961  28.082  49.887  0.00  0.00    -0.041 Cl
ENDROOT
BRANCH   1  11
HETATM   11  N           0       5.198  26.551  53.271  0.00  0.00    -0.361 N 
HETATM   12  C           0       6.513  25.915  53.335  0.00  0.00     0.144 C 
HETATM   13  C           0       7.018  25.853  54.776  0.00  0.00     0.144 C 
HETATM   14  N           0       6.029  25.218  55.644  0.00  0.00    -0.363 N 
HETATM   15  C           0       4.720  24.930  55.061  0.00  0.00     0.144 C 
HETATM   16  C           0       4.199  26.127  54.267  0.00  0.00     0.144 C 
BRANCH  14  17
HETATM   17  C           0       6.311  24.941  56.958  0.00  0.00     0.125 A 
HETATM   18  C           0       5.325  24.407  57.831  0.00  0.00     0.051 A 
HETATM   19  C           0       5.669  24.160  59.146  0.00  0.00     0.021 A 
HETATM   20  C           0       6.970  24.430  59.590  0.00  0.00     0.065 A 
HETATM   21  C           0       7.871  24.941  58.656  0.00  0.00     0.135 A 
HETATM   22  N           0       7.566  25.193  57.385  0.00  0.00    -0.243 NA
BRANCH  20  23
HETATM   23  C           0       7.356  24.225  61.019  0.00  0.00     0.418 C 
HETATM   24  F           0       8.539  23.575  61.128  0.00  0.00    -0.166 F 
HETATM   25  F           0       6.448  23.479  61.697  0.00  0.00    -0.166 F 
HETATM   26  F           0       7.471  25.396  61.686  0.00  0.00    -0.166 F 
ENDBRANCH  20  23
ENDBRANCH  14  17
ENDBRANCH   1  11
BRANCH   5  27
HETATM   27  C           0       6.160  31.646  50.065  0.00  0.00     0.092 C 
HETATM   28  C           0       5.142  32.684  50.580  0.00  0.00     0.026 C 
HETATM   29  C           0       5.935  33.509  51.609  0.00  0.00     0.002 C 
HETATM   30  C           0       7.366  33.603  51.018  0.00  0.00     0.002 C 
HETATM   31  C           0       7.481  32.444  49.981  0.00  0.00     0.026 C 
ENDBRANCH   5  27
TORSDOF 4
ENDMDL
MODEL 6
REMARK VINA RESULT:      -7.5      1.900      2.596
REMARK  4 active torsions:
REMARK  status: ('A' for Active; 'I' for Inactive)
REMARK    1  A    between atoms: C_1  and  N_9 
REMARK    2  A    between atoms: N_5  and  C_6 
REMARK    3  A    between atoms: N_10  and  C_11 
REMARK    4  A    between atoms: C_15  and  C_17 
ROOT
HETATM    1  C           0       4.168  27.558  52.032  0.00  0.00     0.162 A 
HETATM    2  N           0       2.858  27.218  52.015  0.00  0.00    -0.198 NA
HETATM    3  N           0       2.292  28.791  50.291  0.00  0.00    -0.198 NA
HETATM    4  N           0       5.815  29.174  50.860  0.00  0.00    -0.236 NA
HETATM    5  N           0       4.216  30.063  49.531  0.00  0.00    -0.319 N 
HETATM    6  C           0       4.596  28.575  51.135  0.00  0.00     0.150 A 
HETATM    7  C           0       3.593  29.121  50.317  0.00  0.00     0.167 A 
HETATM    8  C           0       5.543  30.043  49.915  0.00  0.00     0.212 A 
HETATM    9  C           0       2.042  27.835  51.171  0.00  0.00     0.227 A 
HETATM   10 Cl           0       0.363  27.295  51.239  0.00  0.00    -0.041 Cl
ENDROOT
BRANCH   1  11
HETATM   11  N           0       4.983  26.909  52.904  0.00  0.00    -0.361 N 
HETATM   12  C           0       6.297  27.446  53.255  0.00  0.00     0.144 C 
HETATM   13  C           0       6.516  27.404  54.767  0.00  0.00     0.144 C 
HETATM   14  N           0       6.287  26.057  55.286  0.00  0.00    -0.363 N 
HETATM   15  C           0       5.740  25.071  54.357  0.00  0.00     0.144 C 
HETATM   16  C           0       4.574  25.656  53.562  0.00  0.00     0.144 C 
BRANCH  14  17
HETATM   17  C           0       6.543  25.749  56.598  0.00  0.00     0.125 A 
HETATM   18  C           0       7.711  26.221  57.256  0.00  0.00     0.051 A 
HETATM   19  C           0       7.917  25.865  58.576  0.00  0.00     0.021 A 
HETATM   20  C           0       6.979  25.061  59.236  0.00  0.00     0.065 A 
HETATM   21  C           0       5.858  24.657  58.510  0.00  0.00     0.135 A 
HETATM   22  N           0       5.638  24.980  57.238  0.00  0.00    -0.243 NA
BRANCH  20  23
HETATM   23  C           0       7.202  24.615  60.645  0.00  0.00     0.418 C 
HETATM   24  F           0       7.327  25.667  61.488  0.00  0.00    -0.166 F 
HETATM   25  F           0       8.335  23.881  60.781  0.00  0.00    -0.166 F 
HETATM   26  F           0       6.185  23.847  61.100  0.00  0.00    -0.166 F 
ENDBRANCH  20  23
ENDBRANCH  14  17
ENDBRANCH   1  11
BRANCH   5  27
HETATM   27  C           0       3.527  30.915  48.546  0.00  0.00     0.092 C 
HETATM   28  C           0       2.840  30.079  47.448  0.00  0.00     0.026 C 
HETATM   29  C           0       1.499  29.662  48.076  0.00  0.00     0.002 C 
HETATM   30  C           0       1.068  30.885  48.929  0.00  0.00     0.002 C 
HETATM   31  C           0       2.363  31.718  49.172  0.00  0.00     0.026 C 
ENDBRANCH   5  27
TORSDOF 4
ENDMDL
MODEL 7
REMARK VINA RESULT:      -7.4     13.989     17.039
REMARK  4 active torsions:
REMARK  status: ('A' for Active; 'I' for Inactive)
REMARK    1  A    between atoms: C_1  and  N_9 
REMARK    2  A    between atoms: N_5  and  C_6 
REMARK    3  A    between atoms: N_10  and  C_11 
REMARK    4  A    between atoms: C_15  and  C_17 
ROOT
HETATM    1  C           0       9.816  32.962  68.535  0.00  0.00     0.162 A 
HETATM    2  N           0      10.407  32.845  69.748  0.00  0.00    -0.198 NA
HETATM    3  N           0      12.085  31.311  68.973  0.00  0.00    -0.198 NA
HETATM    4  N           0      10.062  32.087  66.113  0.00  0.00    -0.236 NA
HETATM    5  N           0      11.868  30.820  66.605  0.00  0.00    -0.319 N 
HETATM    6  C           0      10.370  32.221  67.457  0.00  0.00     0.150 A 
HETATM    7  C           0      11.490  31.435  67.777  0.00  0.00     0.167 A 
HETATM    8  C           0      10.964  31.253  65.654  0.00  0.00     0.212 A 
HETATM    9  C           0      11.467  32.058  69.874  0.00  0.00     0.227 A 
HETATM   10 Cl           0      12.152  31.997  71.500  0.00  0.00    -0.041 Cl
ENDROOT
BRANCH   1  11
HETATM   11  N           0       8.733  33.778  68.432  0.00  0.00    -0.361 N 
HETATM   12  C           0       8.878  35.181  68.049  0.00  0.00     0.144 C 
HETATM   13  C           0       7.857  35.561  66.977  0.00  0.00     0.144 C 
HETATM   14  N           0       6.503  35.218  67.407  0.00  0.00    -0.363 N 
HETATM   15  C           0       6.373  34.446  68.641  0.00  0.00     0.144 C 
HETATM   16  C           0       7.366  33.285  68.667  0.00  0.00     0.144 C 
BRANCH  14  17
HETATM   17  C           0       5.409  35.577  66.661  0.00  0.00     0.125 A 
HETATM   18  C           0       4.101  35.571  67.215  0.00  0.00     0.051 A 
HETATM   19  C           0       3.038  35.932  66.408  0.00  0.00     0.021 A 
HETATM   20  C           0       3.268  36.299  65.075  0.00  0.00     0.065 A 
HETATM   21  C           0       4.588  36.286  64.626  0.00  0.00     0.135 A 
HETATM   22  N           0       5.629  35.938  65.379  0.00  0.00    -0.243 NA
BRANCH  20  23
HETATM   23  C           0       2.134  36.641  64.163  0.00  0.00     0.418 C 
HETATM   24  F           0       1.049  37.066  64.853  0.00  0.00    -0.166 F 
HETATM   25  F           0       1.724  35.577  63.429  0.00  0.00    -0.166 F 
HETATM   26  F           0       2.466  37.614  63.285  0.00  0.00    -0.166 F 
ENDBRANCH  20  23
ENDBRANCH  14  17
ENDBRANCH   1  11
BRANCH   5  27
HETATM   27  C           0      12.984  29.865  66.487  0.00  0.00     0.092 C 
HETATM   28  C           0      12.635  28.499  67.112  0.00  0.00     0.026 C 
HETATM   29  C           0      11.850  27.770  66.007  0.00  0.00     0.002 C 
HETATM   30  C           0      12.533  28.209  64.685  0.00  0.00     0.002 C 
HETATM   31  C           0      13.311  29.518  65.017  0.00  0.00     0.026 C 
ENDBRANCH   5  27
TORSDOF 4
ENDMDL
MODEL 8
REMARK VINA RESULT:      -7.2     14.015     16.841
REMARK  4 active torsions:
REMARK  status: ('A' for Active; 'I' for Inactive)
REMARK    1  A    between atoms: C_1  and  N_9 
REMARK    2  A    between atoms: N_5  and  C_6 
REMARK    3  A    between atoms: N_10  and  C_11 
REMARK    4  A    between atoms: C_15  and  C_17 
ROOT
HETATM    1  C           0       8.875  31.278  68.701  0.00  0.00     0.162 A 
HETATM    2  N           0       9.030  30.592  69.858  0.00  0.00    -0.198 NA
HETATM    3  N           0      10.861  29.274  69.033  0.00  0.00    -0.198 NA
HETATM    4  N           0       9.905  31.436  66.332  0.00  0.00    -0.236 NA
HETATM    5  N           0      11.438  29.825  66.740  0.00  0.00    -0.319 N 
HETATM    6  C           0       9.751  30.964  67.627  0.00  0.00     0.150 A 
HETATM    7  C           0      10.697  29.960  67.891  0.00  0.00     0.167 A 
HETATM    8  C           0      10.904  30.736  65.850  0.00  0.00     0.212 A 
HETATM    9  C           0       9.983  29.673  69.939  0.00  0.00     0.227 A 
HETATM   10 Cl           0      10.090  28.856  71.501  0.00  0.00    -0.041 Cl
ENDROOT
BRANCH   1  11
HETATM   11  N           0       7.893  32.216  68.645  0.00  0.00    -0.361 N 
HETATM   12  C           0       8.211  33.643  68.618  0.00  0.00     0.144 C 
HETATM   13  C           0       7.405  34.360  67.535  0.00  0.00     0.144 C 
HETATM   14  N           0       5.977  34.091  67.690  0.00  0.00    -0.363 N 
HETATM   15  C           0       5.592  33.091  68.684  0.00  0.00     0.144 C 
HETATM   16  C           0       6.469  31.845  68.575  0.00  0.00     0.144 C 
BRANCH  14  17
HETATM   17  C           0       5.046  34.726  66.907  0.00  0.00     0.125 A 
HETATM   18  C           0       3.689  34.835  67.311  0.00  0.00     0.051 A 
HETATM   19  C           0       2.797  35.477  66.472  0.00  0.00     0.021 A 
HETATM   20  C           0       3.244  36.009  65.256  0.00  0.00     0.065 A 
HETATM   21  C           0       4.597  35.863  64.952  0.00  0.00     0.135 A 
HETATM   22  N           0       5.476  35.246  65.738  0.00  0.00    -0.243 NA
BRANCH  20  23
HETATM   23  C           0       2.294  36.660  64.303  0.00  0.00     0.418 C 
HETATM   24  F           0       2.884  37.670  63.620  0.00  0.00    -0.166 F 
HETATM   25  F           0       1.222  37.203  64.933  0.00  0.00    -0.166 F 
HETATM   26  F           0       1.807  35.784  63.395  0.00  0.00    -0.166 F 
ENDBRANCH  20  23
ENDBRANCH  14  17
ENDBRANCH   1  11
BRANCH   5  27
HETATM   27  C           0      12.524  28.846  66.557  0.00  0.00     0.092 C 
HETATM   28  C           0      12.305  27.976  65.303  0.00  0.00     0.026 C 
HETATM   29  C           0      12.843  28.839  64.148  0.00  0.00     0.002 C 
HETATM   30  C           0      14.068  29.577  64.748  0.00  0.00     0.002 C 
HETATM   31  C           0      13.890  29.521  66.296  0.00  0.00     0.026 C 
ENDBRANCH   5  27
TORSDOF 4
ENDMDL
MODEL 9
REMARK VINA RESULT:      -7.2      5.310     10.164
REMARK  4 active torsions:
REMARK  status: ('A' for Active; 'I' for Inactive)
REMARK    1  A    between atoms: C_1  and  N_9 
REMARK    2  A    between atoms: N_5  and  C_6 
REMARK    3  A    between atoms: N_10  and  C_11 
REMARK    4  A    between atoms: C_15  and  C_17 
ROOT
HETATM    1  C           0       6.688  26.406  54.638  0.00  0.00     0.162 A 
HETATM    2  N           0       7.905  26.984  54.769  0.00  0.00    -0.198 NA
HETATM    3  N           0       8.282  26.094  56.968  0.00  0.00    -0.198 NA
HETATM    4  N           0       5.059  24.885  55.953  0.00  0.00    -0.236 NA
HETATM    5  N           0       6.435  24.721  57.740  0.00  0.00    -0.319 N 
HETATM    6  C           0       6.213  25.618  55.721  0.00  0.00     0.150 A 
HETATM    7  C           0       7.075  25.526  56.826  0.00  0.00     0.167 A 
HETATM    8  C           0       5.232  24.379  57.151  0.00  0.00     0.212 A 
HETATM    9  C           0       8.594  26.789  55.886  0.00  0.00     0.227 A 
HETATM   10 Cl           0      10.167  27.587  55.932  0.00  0.00    -0.041 Cl
ENDROOT
BRANCH   1  11
HETATM   11  N           0       6.005  26.619  53.482  0.00  0.00    -0.361 N 
HETATM   12  C           0       4.620  26.176  53.330  0.00  0.00     0.144 C 
HETATM   13  C           0       3.757  27.283  52.725  0.00  0.00     0.144 C 
HETATM   14  N           0       4.345  27.774  51.480  0.00  0.00    -0.363 N 
HETATM   15  C           0       5.677  27.282  51.135  0.00  0.00     0.144 C 
HETATM   16  C           0       6.609  27.331  52.344  0.00  0.00     0.144 C 
BRANCH  14  17
HETATM   17  C           0       3.684  28.684  50.694  0.00  0.00     0.125 A 
HETATM   18  C           0       3.718  30.074  50.982  0.00  0.00     0.051 A 
HETATM   19  C           0       3.022  30.939  50.158  0.00  0.00     0.021 A 
HETATM   20  C           0       2.310  30.435  49.061  0.00  0.00     0.065 A 
HETATM   21  C           0       2.347  29.056  48.852  0.00  0.00     0.135 A 
HETATM   22  N           0       3.004  28.201  49.633  0.00  0.00    -0.243 NA
BRANCH  20  23
HETATM   23  C           0       1.504  31.338  48.185  0.00  0.00     0.418 C 
HETATM   24  F           0       2.226  31.787  47.130  0.00  0.00    -0.166 F 
HETATM   25  F           0       1.067  32.441  48.843  0.00  0.00    -0.166 F 
HETATM   26  F           0       0.406  30.719  47.693  0.00  0.00    -0.166 F 
ENDBRANCH  20  23
ENDBRANCH  14  17
ENDBRANCH   1  11
BRANCH   5  27
HETATM   27  C           0       6.966  24.387  59.073  0.00  0.00     0.092 C 
HETATM   28  C           0       6.741  25.532  60.081  0.00  0.00     0.026 C 
HETATM   29  C           0       5.295  25.326  60.568  0.00  0.00     0.002 C 
HETATM   30  C           0       5.118  23.786  60.627  0.00  0.00     0.002 C 
HETATM   31  C           0       6.233  23.188  59.717  0.00  0.00     0.026 C 
ENDBRANCH   5  27
TORSDOF 4
ENDMDL
MODEL 10
REMARK VINA RESULT:      -6.8      2.632      3.380
REMARK  4 active torsions:
REMARK  status: ('A' for Active; 'I' for Inactive)
REMARK    1  A    between atoms: C_1  and  N_9 
REMARK    2  A    between atoms: N_5  and  C_6 
REMARK    3  A    between atoms: N_10  and  C_11 
REMARK    4  A    between atoms: C_15  and  C_17 
ROOT
HETATM    1  C           0       6.238  26.864  52.257  0.00  0.00     0.162 A 
HETATM    2  N           0       6.710  26.327  51.108  0.00  0.00    -0.198 NA
HETATM    3  N           0       6.635  28.404  49.903  0.00  0.00    -0.198 NA
HETATM    4  N           0       5.456  29.139  53.212  0.00  0.00    -0.236 NA
HETATM    5  N           0       5.825  30.239  51.271  0.00  0.00    -0.319 N 
HETATM    6  C           0       5.936  28.253  52.260  0.00  0.00     0.150 A 
HETATM    7  C           0       6.166  28.925  51.048  0.00  0.00     0.167 A 
HETATM    8  C           0       5.404  30.290  52.586  0.00  0.00     0.212 A 
HETATM    9  C           0       6.873  27.110  50.050  0.00  0.00     0.227 A 
HETATM   10 Cl           0       7.504  26.294  48.618  0.00  0.00    -0.041 Cl
ENDROOT
BRANCH   1  11
HETATM   11  N           0       6.082  26.041  53.327  0.00  0.00    -0.361 N 
HETATM   12  C           0       6.978  24.906  53.544  0.00  0.00     0.144 C 
HETATM   13  C           0       7.449  24.854  54.997  0.00  0.00     0.144 C 
HETATM   14  N           0       6.309  24.870  55.911  0.00  0.00    -0.363 N 
HETATM   15  C           0       4.990  25.106  55.326  0.00  0.00     0.144 C 
HETATM   16  C           0       5.032  26.267  54.334  0.00  0.00     0.144 C 
BRANCH  14  17
HETATM   17  C           0       6.480  24.707  57.263  0.00  0.00     0.125 A 
HETATM   18  C           0       5.394  24.357  58.110  0.00  0.00     0.051 A 
HETATM   19  C           0       5.629  24.220  59.465  0.00  0.00     0.021 A 
HETATM   20  C           0       6.920  24.418  59.973  0.00  0.00     0.065 A 
HETATM   21  C           0       7.923  24.746  59.061  0.00  0.00     0.135 A 
HETATM   22  N           0       7.724  24.891  57.753  0.00  0.00    -0.243 NA
BRANCH  20  23
HETATM   23  C           0       7.194  24.330  61.439  0.00  0.00     0.418 C 
HETATM   24  F           0       7.259  25.557  62.010  0.00  0.00    -0.166 F 
HETATM   25  F           0       8.377  23.722  61.708  0.00  0.00    -0.166 F 
HETATM   26  F           0       6.240  23.627  62.092  0.00  0.00    -0.166 F 
ENDBRANCH  20  23
ENDBRANCH  14  17
ENDBRANCH   1  11
BRANCH   5  27
HETATM   27  C           0       5.873  31.298  50.248  0.00  0.00     0.092 C 
HETATM   28  C           0       5.081  32.548  50.683  0.00  0.00     0.026 C 
HETATM   29  C           0       6.064  33.322  51.579  0.00  0.00     0.002 C 
HETATM   30  C           0       7.452  33.098  50.925  0.00  0.00     0.002 C 
HETATM   31  C           0       7.304  31.835  50.022  0.00  0.00     0.026 C 
ENDBRANCH   5  27
TORSDOF 4
ENDMDL
