REMARK  4 active torsions:
REMARK  status: ('A' for Active; 'I' for Inactive)
REMARK    1  A    between atoms: C_1  and  N_9 
REMARK    2  A    between atoms: N_5  and  C_6 
REMARK    3  A    between atoms: N_10  and  C_11 
REMARK    4  A    between atoms: C_15  and  C_17 
ROOT
HETATM    1  C           0       1.691   0.991   0.353  0.00  0.00     0.162 A 
HETATM    2  N           0       2.177   2.235   0.132  0.00  0.00    -0.198 NA
HETATM    3  N           0       4.365   1.458  -0.484  0.00  0.00    -0.198 NA
HETATM    4  N           0       2.448  -1.482   0.265  0.00  0.00    -0.236 NA
HETATM    5  N           0       4.544  -0.962  -0.405  0.00  0.00    -0.319 N 
HETATM    6  C           0       2.572  -0.106   0.152  0.00  0.00     0.150 A 
HETATM    7  C           0       3.872   0.230  -0.261  0.00  0.00     0.167 A 
HETATM    8  C           0       3.630  -1.942  -0.068  0.00  0.00     0.212 A 
HETATM    9  C           0       3.436   2.374  -0.262  0.00  0.00     0.227 A 
HETATM   10 Cl           0       3.947   4.043  -0.526  0.00  0.00    -0.041 Cl
ENDROOT
BRANCH   1  11
HETATM   11  N           0       0.397   0.876   0.753  0.00  0.00    -0.361 N 
HETATM   12  C           0      -0.453   2.055   0.912  0.00  0.00     0.144 C 
HETATM   13  C           0      -1.815   1.837   0.254  0.00  0.00     0.144 C 
HETATM   14  N           0      -2.436   0.609   0.746  0.00  0.00    -0.363 N 
HETATM   15  C           0      -1.620  -0.254   1.598  0.00  0.00     0.144 C 
HETATM   16  C           0      -0.221  -0.435   1.013  0.00  0.00     0.144 C 
BRANCH  14  17
HETATM   17  C           0      -3.717   0.269   0.390  0.00  0.00     0.125 A 
HETATM   18  C           0      -4.478   1.076  -0.498  0.00  0.00     0.051 A 
HETATM   19  C           0      -5.767   0.685  -0.808  0.00  0.00     0.021 A 
HETATM   20  C           0      -6.292  -0.490  -0.254  0.00  0.00     0.065 A 
HETATM   21  C           0      -5.464  -1.222   0.597  0.00  0.00     0.135 A 
HETATM   22  N           0      -4.222  -0.866   0.917  0.00  0.00    -0.243 NA
BRANCH  20  23
HETATM   23  C           0      -7.700  -0.909  -0.527  0.00  0.00     0.418 C 
HETATM   24  F           0      -8.064  -0.636  -1.803  0.00  0.00    -0.166 F 
HETATM   25  F           0      -8.593  -0.268   0.268  0.00  0.00    -0.166 F 
HETATM   26  F           0      -7.883  -2.234  -0.326  0.00  0.00    -0.166 F 
ENDBRANCH  20  23
ENDBRANCH  14  17
ENDBRANCH   1  11
BRANCH   5  27
HETATM   27  C           0       5.962  -1.079  -0.788  0.00  0.00     0.092 C 
HETATM   28  C           0       6.888  -1.091   0.445  0.00  0.00     0.026 C 
HETATM   29  C           0       6.861  -2.554   0.921  0.00  0.00     0.002 C 
HETATM   30  C           0       6.791  -3.390  -0.384  0.00  0.00     0.002 C 
HETATM   31  C           0       6.275  -2.420  -1.490  0.00  0.00     0.026 C 
ENDBRANCH   5  27
TORSDOF 4
